** sch_path: /home/hni/TopmetalSe-Respin/xschem/user_analog_project_wrapper.sch
.subckt user_analog_project_wrapper vdda1 vdda2 vssa1 vssa2 vccd1 vccd2 vssd1 vssd2 wb_clk_i wb_rst_i wbs_stb_i wbs_cyc_i wbs_we_i
+ wbs_sel_i[3] wbs_sel_i[2] wbs_sel_i[1] wbs_sel_i[0] wbs_dat_i[31] wbs_dat_i[30] wbs_dat_i[29] wbs_dat_i[28] wbs_dat_i[27] wbs_dat_i[26]
+ wbs_dat_i[25] wbs_dat_i[24] wbs_dat_i[23] wbs_dat_i[22] wbs_dat_i[21] wbs_dat_i[20] wbs_dat_i[19] wbs_dat_i[18] wbs_dat_i[17] wbs_dat_i[16]
+ wbs_dat_i[15] wbs_dat_i[14] wbs_dat_i[13] wbs_dat_i[12] wbs_dat_i[11] wbs_dat_i[10] wbs_dat_i[9] wbs_dat_i[8] wbs_dat_i[7] wbs_dat_i[6]
+ wbs_dat_i[5] wbs_dat_i[4] wbs_dat_i[3] wbs_dat_i[2] wbs_dat_i[1] wbs_dat_i[0] wbs_adr_i[31] wbs_adr_i[30] wbs_adr_i[29] wbs_adr_i[28]
+ wbs_adr_i[27] wbs_adr_i[26] wbs_adr_i[25] wbs_adr_i[24] wbs_adr_i[23] wbs_adr_i[22] wbs_adr_i[21] wbs_adr_i[20] wbs_adr_i[19] wbs_adr_i[18]
+ wbs_adr_i[17] wbs_adr_i[16] wbs_adr_i[15] wbs_adr_i[14] wbs_adr_i[13] wbs_adr_i[12] wbs_adr_i[11] wbs_adr_i[10] wbs_adr_i[9] wbs_adr_i[8]
+ wbs_adr_i[7] wbs_adr_i[6] wbs_adr_i[5] wbs_adr_i[4] wbs_adr_i[3] wbs_adr_i[2] wbs_adr_i[1] wbs_adr_i[0] wbs_ack_o wbs_dat_o[31] wbs_dat_o[30]
+ wbs_dat_o[29] wbs_dat_o[28] wbs_dat_o[27] wbs_dat_o[26] wbs_dat_o[25] wbs_dat_o[24] wbs_dat_o[23] wbs_dat_o[22] wbs_dat_o[21] wbs_dat_o[20]
+ wbs_dat_o[19] wbs_dat_o[18] wbs_dat_o[17] wbs_dat_o[16] wbs_dat_o[15] wbs_dat_o[14] wbs_dat_o[13] wbs_dat_o[12] wbs_dat_o[11] wbs_dat_o[10]
+ wbs_dat_o[9] wbs_dat_o[8] wbs_dat_o[7] wbs_dat_o[6] wbs_dat_o[5] wbs_dat_o[4] wbs_dat_o[3] wbs_dat_o[2] wbs_dat_o[1] wbs_dat_o[0]
+ la_data_in[127] la_data_in[126] la_data_in[125] la_data_in[124] la_data_in[123] la_data_in[122] la_data_in[121] la_data_in[120] la_data_in[119]
+ la_data_in[118] la_data_in[117] la_data_in[116] la_data_in[115] la_data_in[114] la_data_in[113] la_data_in[112] la_data_in[111] la_data_in[110]
+ la_data_in[109] la_data_in[108] la_data_in[107] la_data_in[106] la_data_in[105] la_data_in[104] la_data_in[103] la_data_in[102] la_data_in[101]
+ la_data_in[100] la_data_in[99] la_data_in[98] la_data_in[97] la_data_in[96] la_data_in[95] la_data_in[94] la_data_in[93] la_data_in[92]
+ la_data_in[91] la_data_in[90] la_data_in[89] la_data_in[88] la_data_in[87] la_data_in[86] la_data_in[85] la_data_in[84] la_data_in[83]
+ la_data_in[82] la_data_in[81] la_data_in[80] la_data_in[79] la_data_in[78] la_data_in[77] la_data_in[76] la_data_in[75] la_data_in[74]
+ la_data_in[73] la_data_in[72] la_data_in[71] la_data_in[70] la_data_in[69] la_data_in[68] la_data_in[67] la_data_in[66] la_data_in[65]
+ la_data_in[64] la_data_in[63] la_data_in[62] la_data_in[61] la_data_in[60] la_data_in[59] la_data_in[58] la_data_in[57] la_data_in[56]
+ la_data_in[55] la_data_in[54] la_data_in[53] la_data_in[52] la_data_in[51] la_data_in[50] la_data_in[49] la_data_in[48] la_data_in[47]
+ la_data_in[46] la_data_in[45] la_data_in[44] la_data_in[43] la_data_in[42] la_data_in[41] la_data_in[40] la_data_in[39] la_data_in[38]
+ la_data_in[37] la_data_in[36] la_data_in[35] la_data_in[34] la_data_in[33] la_data_in[32] la_data_in[31] la_data_in[30] la_data_in[29]
+ la_data_in[28] la_data_in[27] la_data_in[26] la_data_in[25] la_data_in[24] la_data_in[23] la_data_in[22] la_data_in[21] la_data_in[20]
+ la_data_in[19] la_data_in[18] la_data_in[17] la_data_in[16] la_data_in[15] la_data_in[14] la_data_in[13] la_data_in[12] la_data_in[11]
+ la_data_in[10] la_data_in[9] la_data_in[8] la_data_in[7] la_data_in[6] la_data_in[5] la_data_in[4] la_data_in[3] la_data_in[2] la_data_in[1]
+ la_data_in[0] la_data_out[127] la_data_out[126] la_data_out[125] la_data_out[124] la_data_out[123] la_data_out[122] la_data_out[121]
+ la_data_out[120] la_data_out[119] la_data_out[118] la_data_out[117] la_data_out[116] la_data_out[115] la_data_out[114] la_data_out[113]
+ la_data_out[112] la_data_out[111] la_data_out[110] la_data_out[109] la_data_out[108] la_data_out[107] la_data_out[106] la_data_out[105]
+ la_data_out[104] la_data_out[103] la_data_out[102] la_data_out[101] la_data_out[100] la_data_out[99] la_data_out[98] la_data_out[97]
+ la_data_out[96] la_data_out[95] la_data_out[94] la_data_out[93] la_data_out[92] la_data_out[91] la_data_out[90] la_data_out[89] la_data_out[88]
+ la_data_out[87] la_data_out[86] la_data_out[85] la_data_out[84] la_data_out[83] la_data_out[82] la_data_out[81] la_data_out[80] la_data_out[79]
+ la_data_out[78] la_data_out[77] la_data_out[76] la_data_out[75] la_data_out[74] la_data_out[73] la_data_out[72] la_data_out[71] la_data_out[70]
+ la_data_out[69] la_data_out[68] la_data_out[67] la_data_out[66] la_data_out[65] la_data_out[64] la_data_out[63] la_data_out[62] la_data_out[61]
+ la_data_out[60] la_data_out[59] la_data_out[58] la_data_out[57] la_data_out[56] la_data_out[55] la_data_out[54] la_data_out[53] la_data_out[52]
+ la_data_out[51] la_data_out[50] la_data_out[49] la_data_out[48] la_data_out[47] la_data_out[46] la_data_out[45] la_data_out[44] la_data_out[43]
+ la_data_out[42] la_data_out[41] la_data_out[40] la_data_out[39] la_data_out[38] la_data_out[37] la_data_out[36] la_data_out[35] la_data_out[34]
+ la_data_out[33] la_data_out[32] la_data_out[31] la_data_out[30] la_data_out[29] la_data_out[28] la_data_out[27] la_data_out[26] la_data_out[25]
+ la_data_out[24] la_data_out[23] la_data_out[22] la_data_out[21] la_data_out[20] la_data_out[19] la_data_out[18] la_data_out[17] la_data_out[16]
+ la_data_out[15] la_data_out[14] la_data_out[13] la_data_out[12] la_data_out[11] la_data_out[10] la_data_out[9] la_data_out[8] la_data_out[7]
+ la_data_out[6] la_data_out[5] la_data_out[4] la_data_out[3] la_data_out[2] la_data_out[1] la_data_out[0] la_oenb[127] la_oenb[126] la_oenb[125]
+ la_oenb[124] la_oenb[123] la_oenb[122] la_oenb[121] la_oenb[120] la_oenb[119] la_oenb[118] la_oenb[117] la_oenb[116] la_oenb[115] la_oenb[114]
+ la_oenb[113] la_oenb[112] la_oenb[111] la_oenb[110] la_oenb[109] la_oenb[108] la_oenb[107] la_oenb[106] la_oenb[105] la_oenb[104] la_oenb[103]
+ la_oenb[102] la_oenb[101] la_oenb[100] la_oenb[99] la_oenb[98] la_oenb[97] la_oenb[96] la_oenb[95] la_oenb[94] la_oenb[93] la_oenb[92]
+ la_oenb[91] la_oenb[90] la_oenb[89] la_oenb[88] la_oenb[87] la_oenb[86] la_oenb[85] la_oenb[84] la_oenb[83] la_oenb[82] la_oenb[81]
+ la_oenb[80] la_oenb[79] la_oenb[78] la_oenb[77] la_oenb[76] la_oenb[75] la_oenb[74] la_oenb[73] la_oenb[72] la_oenb[71] la_oenb[70]
+ la_oenb[69] la_oenb[68] la_oenb[67] la_oenb[66] la_oenb[65] la_oenb[64] la_oenb[63] la_oenb[62] la_oenb[61] la_oenb[60] la_oenb[59]
+ la_oenb[58] la_oenb[57] la_oenb[56] la_oenb[55] la_oenb[54] la_oenb[53] la_oenb[52] la_oenb[51] la_oenb[50] la_oenb[49] la_oenb[48]
+ la_oenb[47] la_oenb[46] la_oenb[45] la_oenb[44] la_oenb[43] la_oenb[42] la_oenb[41] la_oenb[40] la_oenb[39] la_oenb[38] la_oenb[37]
+ la_oenb[36] la_oenb[35] la_oenb[34] la_oenb[33] la_oenb[32] la_oenb[31] la_oenb[30] la_oenb[29] la_oenb[28] la_oenb[27] la_oenb[26]
+ la_oenb[25] la_oenb[24] la_oenb[23] la_oenb[22] la_oenb[21] la_oenb[20] la_oenb[19] la_oenb[18] la_oenb[17] la_oenb[16] la_oenb[15]
+ la_oenb[14] la_oenb[13] la_oenb[12] la_oenb[11] la_oenb[10] la_oenb[9] la_oenb[8] la_oenb[7] la_oenb[6] la_oenb[5] la_oenb[4] la_oenb[3]
+ la_oenb[2] la_oenb[1] la_oenb[0] io_in[26] io_in[25] io_in[24] io_in[23] io_in[22] io_in[21] io_in[20] io_in[19] io_in[18] io_in[17]
+ io_in[16] io_in[15] io_in[14] io_in[13] io_in[12] io_in[11] io_in[10] io_in[9] io_in[8] io_in[7] io_in[6] io_in[5] io_in[4] io_in[3]
+ io_in[2] io_in[1] io_in[0] io_in_3v3[26] io_in_3v3[25] io_in_3v3[24] io_in_3v3[23] io_in_3v3[22] io_in_3v3[21] io_in_3v3[20] io_in_3v3[19]
+ io_in_3v3[18] io_in_3v3[17] io_in_3v3[16] io_in_3v3[15] io_in_3v3[14] io_in_3v3[13] io_in_3v3[12] io_in_3v3[11] io_in_3v3[10] io_in_3v3[9]
+ io_in_3v3[8] io_in_3v3[7] io_in_3v3[6] io_in_3v3[5] io_in_3v3[4] io_in_3v3[3] io_in_3v3[2] io_in_3v3[1] io_in_3v3[0] io_out[26] io_out[25]
+ io_out[24] io_out[23] io_out[22] io_out[21] io_out[20] io_out[19] io_out[18] io_out[17] io_out[16] io_out[15] io_out[14] io_out[13]
+ io_out[12] io_out[11] io_out[10] io_out[9] io_out[8] io_out[7] io_out[6] io_out[5] io_out[4] io_out[3] io_out[2] io_out[1] io_out[0]
+ io_oeb[26] io_oeb[25] io_oeb[24] io_oeb[23] io_oeb[22] io_oeb[21] io_oeb[20] io_oeb[19] io_oeb[18] io_oeb[17] io_oeb[16] io_oeb[15]
+ io_oeb[14] io_oeb[13] io_oeb[12] io_oeb[11] io_oeb[10] io_oeb[9] io_oeb[8] io_oeb[7] io_oeb[6] io_oeb[5] io_oeb[4] io_oeb[3] io_oeb[2]
+ io_oeb[1] io_oeb[0] gpio_analog[17] gpio_analog[16] gpio_analog[15] gpio_analog[14] gpio_analog[13] gpio_analog[12] gpio_analog[11]
+ gpio_analog[10] gpio_analog[9] gpio_analog[8] gpio_analog[7] gpio_analog[6] gpio_analog[5] gpio_analog[4] gpio_analog[3] gpio_analog[2]
+ gpio_analog[1] gpio_analog[0] gpio_noesd[17] gpio_noesd[16] gpio_noesd[15] gpio_noesd[14] gpio_noesd[13] gpio_noesd[12] gpio_noesd[11]
+ gpio_noesd[10] gpio_noesd[9] gpio_noesd[8] gpio_noesd[7] gpio_noesd[6] gpio_noesd[5] gpio_noesd[4] gpio_noesd[3] gpio_noesd[2] gpio_noesd[1]
+ gpio_noesd[0] io_analog[10] io_analog[9] io_analog[8] io_analog[7] io_analog[6] io_analog[5] io_analog[4] io_analog[3] io_analog[2]
+ io_analog[1] io_analog[0] io_clamp_high[2] io_clamp_high[1] io_clamp_high[0] io_clamp_low[2] io_clamp_low[1] io_clamp_low[0] user_clock2
+ user_irq[2] user_irq[1] user_irq[0]
*.PININFO vdda1:B vdda2:B vssa1:B vssa2:B vccd1:B vccd2:B vssd1:B vssd2:B wb_clk_i:I wb_rst_i:I wbs_stb_i:I wbs_cyc_i:I wbs_we_i:I
*+ wbs_sel_i[3:0]:I wbs_dat_i[31:0]:I wbs_adr_i[31:0]:I wbs_ack_o:O wbs_dat_o[31:0]:O la_data_in[127:0]:I la_data_out[127:0]:O io_in[26:0]:I
*+ io_in_3v3[26:0]:I user_clock2:I io_out[26:0]:O io_oeb[26:0]:O gpio_analog[17:0]:B gpio_noesd[17:0]:B io_analog[10:0]:B io_clamp_high[2:0]:B
*+ io_clamp_low[2:0]:B user_irq[2:0]:O la_oenb[127:0]:I
x1 vccd1 vssd1 io_analog[6] io_analog[10] io_analog[7] net1 io_in[20] io_in[21] io_in[22] io_analog[8] net2[8] net2[7] net2[6]
+ net2[5] net2[4] net2[3] net2[2] net2[1] net2[0] io_analog[4] io_analog[5] io_analog[9] io_in[23] io_in[24] io_in[15] array3
x2 net3 io_analog[6] io_analog[10] io_analog[7] vccd1 io_analog[8] vssd1 io_analog[4] io_analog[5] io_analog[9] io_in[17] io_in[7]
+ io_in[18] io_in[8] io_in[19] io_in[9] io_in[16] io_in[6] array_SR
x3 io_analog[1] io_analog[3] vssd1 vccd1 net1 io_analog[2] opamp_wrapper
x4 io_analog[0] io_analog[3] vssd1 vccd1 net3 io_analog[2] opamp_wrapper
x5 io_analog[3] vccd1 io_analog[5] vssd1 io_analog[6] io_analog[4] io_analog[2] biases
R8[0] vssd1 io_oeb[6] sky130_fd_pr__res_generic_m3 W=0.5 L=0.5 m=1
R8[1] vssd1 io_oeb[7] sky130_fd_pr__res_generic_m3 W=0.5 L=0.5 m=1
R8[2] vssd1 io_oeb[8] sky130_fd_pr__res_generic_m3 W=0.5 L=0.5 m=1
R8[3] vssd1 io_oeb[9] sky130_fd_pr__res_generic_m3 W=0.5 L=0.5 m=1
R8[4] vssd1 io_oeb[15] sky130_fd_pr__res_generic_m3 W=0.5 L=0.5 m=1
R8[5] vssd1 io_oeb[16] sky130_fd_pr__res_generic_m3 W=0.5 L=0.5 m=1
R8[6] vssd1 io_oeb[17] sky130_fd_pr__res_generic_m3 W=0.5 L=0.5 m=1
R8[7] vssd1 io_oeb[18] sky130_fd_pr__res_generic_m3 W=0.5 L=0.5 m=1
R8[8] vssd1 io_oeb[19] sky130_fd_pr__res_generic_m3 W=0.5 L=0.5 m=1
R8[9] vssd1 io_oeb[23] sky130_fd_pr__res_generic_m3 W=0.5 L=0.5 m=1
R8[10] vssd1 io_oeb[24] sky130_fd_pr__res_generic_m3 W=0.5 L=0.5 m=1
R8[11] vssd1 io_oeb[20] sky130_fd_pr__res_generic_m3 W=0.5 L=0.5 m=1
R8[12] vssd1 io_oeb[21] sky130_fd_pr__res_generic_m3 W=0.5 L=0.5 m=1
R8[13] vssd1 io_oeb[22] sky130_fd_pr__res_generic_m3 W=0.5 L=0.5 m=1
.ends

* expanding   symbol:  array3.sym # of pins=13
** sym_path: /home/hni/TopmetalSe-Respin/xschem/array3.sym
** sch_path: /home/hni/TopmetalSe-Respin/xschem/array3.sch
.subckt array3 VDD GND SF_IB gring VBIAS ARRAY_OUT ROW_SEL[0] ROW_SEL[1] ROW_SEL[2] VREF PIX_IN[0] PIX_IN[1] PIX_IN[2] PIX_IN[3]
+ PIX_IN[4] PIX_IN[5] PIX_IN[6] PIX_IN[7] PIX_IN[8] NB2 NB1 CSA_VREF COL_SEL[0] COL_SEL[1] COL_SEL[2]
*.PININFO VDD:I GND:I SF_IB:I gring:I VBIAS:I ARRAY_OUT:O ROW_SEL[0:2]:I VREF:I PIX_IN[0:8]:I NB2:I NB1:I CSA_VREF:I
*+ COL_SEL[0:2]:I
xPix0 VDD GND SF_IB gring VBIAS COL_OUT[0] ROW_SEL[0] VREF PIX_IN[0] NB2 NB1 CSA_VREF pixel
xPix1 VDD GND SF_IB gring VBIAS COL_OUT[1] ROW_SEL[0] VREF PIX_IN[1] NB2 NB1 CSA_VREF pixel
xPix2 VDD GND SF_IB gring VBIAS COL_OUT[2] ROW_SEL[0] VREF PIX_IN[2] NB2 NB1 CSA_VREF pixel
xPix3 VDD GND SF_IB gring VBIAS COL_OUT[0] ROW_SEL[1] VREF PIX_IN[3] NB2 NB1 CSA_VREF pixel
xPix4 VDD GND SF_IB gring VBIAS COL_OUT[1] ROW_SEL[1] VREF PIX_IN[4] NB2 NB1 CSA_VREF pixel
xPix5 VDD GND SF_IB gring VBIAS COL_OUT[2] ROW_SEL[1] VREF PIX_IN[5] NB2 NB1 CSA_VREF pixel
xPix6 VDD GND SF_IB gring VBIAS COL_OUT[0] ROW_SEL[2] VREF PIX_IN[6] NB2 NB1 CSA_VREF pixel
xPix7 VDD GND SF_IB gring VBIAS COL_OUT[1] ROW_SEL[2] VREF PIX_IN[7] NB2 NB1 CSA_VREF pixel
xPix8 VDD GND SF_IB gring VBIAS COL_OUT[2] ROW_SEL[2] VREF PIX_IN[8] NB2 NB1 CSA_VREF pixel
XM0 COL_OUT[0] COL_SEL[0] ARRAY_OUT GND sky130_fd_pr__nfet_01v8_lvt L=2 W=8 nf=1 ad='int((nf+1)/2) * W/nf * 0.29' as='int((nf+2)/2) * W/nf * 0.29'
+ pd='2*int((nf+1)/2) * (W/nf + 0.29)' ps='2*int((nf+2)/2) * (W/nf + 0.29)' nrd='0.29 / W' nrs='0.29 / W' sa=0 sb=0 sd=0 mult=1 m=1
XM1 COL_OUT[1] COL_SEL[1] ARRAY_OUT GND sky130_fd_pr__nfet_01v8_lvt L=2 W=8 nf=1 ad='int((nf+1)/2) * W/nf * 0.29' as='int((nf+2)/2) * W/nf * 0.29'
+ pd='2*int((nf+1)/2) * (W/nf + 0.29)' ps='2*int((nf+2)/2) * (W/nf + 0.29)' nrd='0.29 / W' nrs='0.29 / W' sa=0 sb=0 sd=0 mult=1 m=1
XM2 COL_OUT[2] COL_SEL[2] ARRAY_OUT GND sky130_fd_pr__nfet_01v8_lvt L=2 W=8 nf=1 ad='int((nf+1)/2) * W/nf * 0.29' as='int((nf+2)/2) * W/nf * 0.29'
+ pd='2*int((nf+1)/2) * (W/nf + 0.29)' ps='2*int((nf+2)/2) * (W/nf + 0.29)' nrd='0.29 / W' nrs='0.29 / W' sa=0 sb=0 sd=0 mult=1 m=1
.ends


* expanding   symbol:  array_SR.sym # of pins=18
** sym_path: /home/hni/TopmetalSe-Respin/xschem/array_SR.sym
** sch_path: /home/hni/TopmetalSe-Respin/xschem/array_SR.sch
.subckt array_SR ARRAY_OUT SF_IB gring VBIAS VDD VREF GND NB2 NB1 CSA_VREF ROW_ENA COL_ENA ROW_RST COL_RST ROW_DIN COL_DIN ROW_CLK
+ COL_CLK
*.PININFO ARRAY_OUT:O COL_ENA:I COL_RST:I COL_DIN:I COL_CLK:I ROW_ENA:I ROW_RST:I ROW_DIN:I ROW_CLK:I VBIAS:I VREF:I NB1:I gring:I
*+ CSA_VREF:I NB2:I SF_IB:I VDD:I GND:I
x1 VDD GND SF_IB gring VBIAS ARRAY_OUT ROW_SEL[0] ROW_SEL[1] ROW_SEL[2] ROW_SEL[3] ROW_SEL[4] ROW_SEL[5] ROW_SEL[6] ROW_SEL[7]
+ ROW_SEL[8] ROW_SEL[9] ROW_SEL[10] ROW_SEL[11] ROW_SEL[12] ROW_SEL[13] ROW_SEL[14] ROW_SEL[15] ROW_SEL[16] ROW_SEL[17] ROW_SEL[18]
+ ROW_SEL[19] ROW_SEL[20] ROW_SEL[21] ROW_SEL[22] ROW_SEL[23] ROW_SEL[24] ROW_SEL[25] ROW_SEL[26] ROW_SEL[27] ROW_SEL[28] ROW_SEL[29]
+ ROW_SEL[30] ROW_SEL[31] ROW_SEL[32] ROW_SEL[33] ROW_SEL[34] ROW_SEL[35] ROW_SEL[36] ROW_SEL[37] ROW_SEL[38] ROW_SEL[39] ROW_SEL[40]
+ ROW_SEL[41] ROW_SEL[42] ROW_SEL[43] ROW_SEL[44] ROW_SEL[45] ROW_SEL[46] ROW_SEL[47] ROW_SEL[48] ROW_SEL[49] ROW_SEL[50] ROW_SEL[51]
+ ROW_SEL[52] ROW_SEL[53] ROW_SEL[54] ROW_SEL[55] ROW_SEL[56] ROW_SEL[57] ROW_SEL[58] ROW_SEL[59] ROW_SEL[60] ROW_SEL[61] ROW_SEL[62]
+ ROW_SEL[63] ROW_SEL[64] ROW_SEL[65] ROW_SEL[66] ROW_SEL[67] ROW_SEL[68] ROW_SEL[69] ROW_SEL[70] ROW_SEL[71] ROW_SEL[72] ROW_SEL[73]
+ ROW_SEL[74] ROW_SEL[75] ROW_SEL[76] ROW_SEL[77] ROW_SEL[78] ROW_SEL[79] ROW_SEL[80] ROW_SEL[81] ROW_SEL[82] ROW_SEL[83] ROW_SEL[84]
+ ROW_SEL[85] ROW_SEL[86] ROW_SEL[87] ROW_SEL[88] ROW_SEL[89] ROW_SEL[90] ROW_SEL[91] ROW_SEL[92] ROW_SEL[93] ROW_SEL[94] ROW_SEL[95]
+ ROW_SEL[96] ROW_SEL[97] ROW_SEL[98] ROW_SEL[99] VREF NB2 NB1 CSA_VREF COL_SEL[0] COL_SEL[1] COL_SEL[2] COL_SEL[3] COL_SEL[4] COL_SEL[5]
+ COL_SEL[6] COL_SEL[7] COL_SEL[8] COL_SEL[9] COL_SEL[10] COL_SEL[11] COL_SEL[12] COL_SEL[13] COL_SEL[14] COL_SEL[15] COL_SEL[16] COL_SEL[17]
+ COL_SEL[18] COL_SEL[19] COL_SEL[20] COL_SEL[21] COL_SEL[22] COL_SEL[23] COL_SEL[24] COL_SEL[25] COL_SEL[26] COL_SEL[27] COL_SEL[28]
+ COL_SEL[29] COL_SEL[30] COL_SEL[31] COL_SEL[32] COL_SEL[33] COL_SEL[34] COL_SEL[35] COL_SEL[36] COL_SEL[37] COL_SEL[38] COL_SEL[39]
+ COL_SEL[40] COL_SEL[41] COL_SEL[42] COL_SEL[43] COL_SEL[44] COL_SEL[45] COL_SEL[46] COL_SEL[47] COL_SEL[48] COL_SEL[49] COL_SEL[50]
+ COL_SEL[51] COL_SEL[52] COL_SEL[53] COL_SEL[54] COL_SEL[55] COL_SEL[56] COL_SEL[57] COL_SEL[58] COL_SEL[59] COL_SEL[60] COL_SEL[61]
+ COL_SEL[62] COL_SEL[63] COL_SEL[64] COL_SEL[65] COL_SEL[66] COL_SEL[67] COL_SEL[68] COL_SEL[69] COL_SEL[70] COL_SEL[71] COL_SEL[72]
+ COL_SEL[73] COL_SEL[74] COL_SEL[75] COL_SEL[76] COL_SEL[77] COL_SEL[78] COL_SEL[79] COL_SEL[80] COL_SEL[81] COL_SEL[82] COL_SEL[83]
+ COL_SEL[84] COL_SEL[85] COL_SEL[86] COL_SEL[87] COL_SEL[88] COL_SEL[89] COL_SEL[90] COL_SEL[91] COL_SEL[92] COL_SEL[93] COL_SEL[94]
+ COL_SEL[95] COL_SEL[96] COL_SEL[97] COL_SEL[98] COL_SEL[99] array100
x3 GND VDD ROW_CLK ROW_DIN net1 ROW_ENA ROW_RST ROW_SEL[99] ROW_SEL[98] ROW_SEL[97] ROW_SEL[96] ROW_SEL[95] ROW_SEL[94]
+ ROW_SEL[93] ROW_SEL[92] ROW_SEL[91] ROW_SEL[90] ROW_SEL[89] ROW_SEL[88] ROW_SEL[87] ROW_SEL[86] ROW_SEL[85] ROW_SEL[84] ROW_SEL[83]
+ ROW_SEL[82] ROW_SEL[81] ROW_SEL[80] ROW_SEL[79] ROW_SEL[78] ROW_SEL[77] ROW_SEL[76] ROW_SEL[75] ROW_SEL[74] ROW_SEL[73] ROW_SEL[72]
+ ROW_SEL[71] ROW_SEL[70] ROW_SEL[69] ROW_SEL[68] ROW_SEL[67] ROW_SEL[66] ROW_SEL[65] ROW_SEL[64] ROW_SEL[63] ROW_SEL[62] ROW_SEL[61]
+ ROW_SEL[60] ROW_SEL[59] ROW_SEL[58] ROW_SEL[57] ROW_SEL[56] ROW_SEL[55] ROW_SEL[54] ROW_SEL[53] ROW_SEL[52] ROW_SEL[51] ROW_SEL[50]
+ ROW_SEL[49] ROW_SEL[48] ROW_SEL[47] ROW_SEL[46] ROW_SEL[45] ROW_SEL[44] ROW_SEL[43] ROW_SEL[42] ROW_SEL[41] ROW_SEL[40] ROW_SEL[39]
+ ROW_SEL[38] ROW_SEL[37] ROW_SEL[36] ROW_SEL[35] ROW_SEL[34] ROW_SEL[33] ROW_SEL[32] ROW_SEL[31] ROW_SEL[30] ROW_SEL[29] ROW_SEL[28]
+ ROW_SEL[27] ROW_SEL[26] ROW_SEL[25] ROW_SEL[24] ROW_SEL[23] ROW_SEL[22] ROW_SEL[21] ROW_SEL[20] ROW_SEL[19] ROW_SEL[18] ROW_SEL[17]
+ ROW_SEL[16] ROW_SEL[15] ROW_SEL[14] ROW_SEL[13] ROW_SEL[12] ROW_SEL[11] ROW_SEL[10] ROW_SEL[9] ROW_SEL[8] ROW_SEL[7] ROW_SEL[6] ROW_SEL[5]
+ ROW_SEL[4] ROW_SEL[3] ROW_SEL[2] ROW_SEL[1] ROW_SEL[0] shift_register
x2 GND VDD COL_CLK COL_DIN net2 COL_ENA COL_RST COL_SEL[99] COL_SEL[98] COL_SEL[97] COL_SEL[96] COL_SEL[95] COL_SEL[94]
+ COL_SEL[93] COL_SEL[92] COL_SEL[91] COL_SEL[90] COL_SEL[89] COL_SEL[88] COL_SEL[87] COL_SEL[86] COL_SEL[85] COL_SEL[84] COL_SEL[83]
+ COL_SEL[82] COL_SEL[81] COL_SEL[80] COL_SEL[79] COL_SEL[78] COL_SEL[77] COL_SEL[76] COL_SEL[75] COL_SEL[74] COL_SEL[73] COL_SEL[72]
+ COL_SEL[71] COL_SEL[70] COL_SEL[69] COL_SEL[68] COL_SEL[67] COL_SEL[66] COL_SEL[65] COL_SEL[64] COL_SEL[63] COL_SEL[62] COL_SEL[61]
+ COL_SEL[60] COL_SEL[59] COL_SEL[58] COL_SEL[57] COL_SEL[56] COL_SEL[55] COL_SEL[54] COL_SEL[53] COL_SEL[52] COL_SEL[51] COL_SEL[50]
+ COL_SEL[49] COL_SEL[48] COL_SEL[47] COL_SEL[46] COL_SEL[45] COL_SEL[44] COL_SEL[43] COL_SEL[42] COL_SEL[41] COL_SEL[40] COL_SEL[39]
+ COL_SEL[38] COL_SEL[37] COL_SEL[36] COL_SEL[35] COL_SEL[34] COL_SEL[33] COL_SEL[32] COL_SEL[31] COL_SEL[30] COL_SEL[29] COL_SEL[28]
+ COL_SEL[27] COL_SEL[26] COL_SEL[25] COL_SEL[24] COL_SEL[23] COL_SEL[22] COL_SEL[21] COL_SEL[20] COL_SEL[19] COL_SEL[18] COL_SEL[17]
+ COL_SEL[16] COL_SEL[15] COL_SEL[14] COL_SEL[13] COL_SEL[12] COL_SEL[11] COL_SEL[10] COL_SEL[9] COL_SEL[8] COL_SEL[7] COL_SEL[6] COL_SEL[5]
+ COL_SEL[4] COL_SEL[3] COL_SEL[2] COL_SEL[1] COL_SEL[0] shift_registerC
.ends


* expanding   symbol:  opamp_diego/opamp_wrapper.sym # of pins=6
** sym_path: /home/hni/TopmetalSe-Respin/xschem/opamp_diego/opamp_wrapper.sym
** sch_path: /home/hni/TopmetalSe-Respin/xschem/opamp_diego/opamp_wrapper.sch
.subckt opamp_wrapper AOUT OUT_IB VSS VDD ARRAY_OUT AMP_IB
*.PININFO ARRAY_OUT:I AMP_IB:I VDD:B AOUT:O OUT_IB:I VSS:B
XM8 ARRAY_OUT OUT_IB VSS VSS sky130_fd_pr__nfet_01v8_lvt L=0.15 W=10 nf=1 ad='int((nf+1)/2) * W/nf * 0.29' as='int((nf+2)/2) * W/nf * 0.29'
+ pd='2*int((nf+1)/2) * (W/nf + 0.29)' ps='2*int((nf+2)/2) * (W/nf + 0.29)' nrd='0.29 / W' nrs='0.29 / W' sa=0 sb=0 sd=0 mult=1 m=1
XM1 iref AMP_IB VSS VSS sky130_fd_pr__nfet_01v8_lvt L=0.15 W=10 nf=1 ad='int((nf+1)/2) * W/nf * 0.29' as='int((nf+2)/2) * W/nf * 0.29'
+ pd='2*int((nf+1)/2) * (W/nf + 0.29)' ps='2*int((nf+2)/2) * (W/nf + 0.29)' nrd='0.29 / W' nrs='0.29 / W' sa=0 sb=0 sd=0 mult=1 m=1
x2 VDD iref ARRAY_OUT AOUT AOUT VSS opamp_v1
.ends


* expanding   symbol:  biases.sym # of pins=7
** sym_path: /home/hni/TopmetalSe-Respin/xschem/biases.sym
** sch_path: /home/hni/TopmetalSe-Respin/xschem/biases.sch
.subckt biases OUT_IB VDD NB1 GND SF_IB NB2 AMP_IB
*.PININFO VDD:I GND:I NB1:B NB2:B OUT_IB:B AMP_IB:B SF_IB:B
XM1 NB1 NB1 GND GND sky130_fd_pr__nfet_01v8_lvt L=1.2 W=1 nf=1 ad='int((nf+1)/2) * W/nf * 0.29' as='int((nf+2)/2) * W/nf * 0.29' pd='2*int((nf+1)/2) * (W/nf + 0.29)'
+ ps='2*int((nf+2)/2) * (W/nf + 0.29)' nrd='0.29 / W' nrs='0.29 / W' sa=0 sb=0 sd=0 mult=1 m=1
XM3 NB2 NB2 GND GND sky130_fd_pr__nfet_01v8_lvt L=1.2 W=1 nf=1 ad='int((nf+1)/2) * W/nf * 0.29' as='int((nf+2)/2) * W/nf * 0.29' pd='2*int((nf+1)/2) * (W/nf + 0.29)'
+ ps='2*int((nf+2)/2) * (W/nf + 0.29)' nrd='0.29 / W' nrs='0.29 / W' sa=0 sb=0 sd=0 mult=1 m=1
XM5 SF_IB SF_IB VDD VDD sky130_fd_pr__pfet_01v8_lvt L=1 W=1 nf=1 ad='int((nf+1)/2) * W/nf * 0.29' as='int((nf+2)/2) * W/nf * 0.29'
+ pd='2*int((nf+1)/2) * (W/nf + 0.29)' ps='2*int((nf+2)/2) * (W/nf + 0.29)' nrd='0.29 / W' nrs='0.29 / W' sa=0 sb=0 sd=0 mult=1 m=1
XM4 OUT_IB OUT_IB GND GND sky130_fd_pr__nfet_01v8_lvt L=2 W=8 nf=1 ad='int((nf+1)/2) * W/nf * 0.29' as='int((nf+2)/2) * W/nf * 0.29'
+ pd='2*int((nf+1)/2) * (W/nf + 0.29)' ps='2*int((nf+2)/2) * (W/nf + 0.29)' nrd='0.29 / W' nrs='0.29 / W' sa=0 sb=0 sd=0 mult=1 m=1
XM9 AMP_IB AMP_IB GND GND sky130_fd_pr__nfet_01v8_lvt L=2 W=8 nf=1 ad='int((nf+1)/2) * W/nf * 0.29' as='int((nf+2)/2) * W/nf * 0.29'
+ pd='2*int((nf+1)/2) * (W/nf + 0.29)' ps='2*int((nf+2)/2) * (W/nf + 0.29)' nrd='0.29 / W' nrs='0.29 / W' sa=0 sb=0 sd=0 mult=1 m=1
.ends


* expanding   symbol:  pixel/pixel.sym # of pins=12
** sym_path: /home/hni/TopmetalSe-Respin/xschem/pixel/pixel.sym
** sch_path: /home/hni/TopmetalSe-Respin/xschem/pixel/pixel.sch
.subckt pixel VDD GND SF_IB gring VBIAS pix_out ROW_SEL VREF AMP_IN NB2 NB1 CSA_VREF
*.PININFO pix_out:O SF_IB:I ROW_SEL:I VREF:I AMP_IN:I NB1:I CSA_VREF:I VBIAS:I NB2:I VDD:I GND:I gring:I
XM2 net2 ROW_SEL pix_out GND sky130_fd_pr__nfet_01v8_lvt L=1 W=2 nf=1 ad='int((nf+1)/2) * W/nf * 0.29' as='int((nf+2)/2) * W/nf * 0.29'
+ pd='2*int((nf+1)/2) * (W/nf + 0.29)' ps='2*int((nf+2)/2) * (W/nf + 0.29)' nrd='0.29 / W' nrs='0.29 / W' sa=0 sb=0 sd=0 mult=1 m=1
XM3 GND AMP_OUT net1 VDD sky130_fd_pr__pfet_01v8_lvt L=1 W=1 nf=1 ad='int((nf+1)/2) * W/nf * 0.29' as='int((nf+2)/2) * W/nf * 0.29'
+ pd='2*int((nf+1)/2) * (W/nf + 0.29)' ps='2*int((nf+2)/2) * (W/nf + 0.29)' nrd='0.29 / W' nrs='0.29 / W' sa=0 sb=0 sd=0 mult=1 m=1
XM5 net1 SF_IB VDD VDD sky130_fd_pr__pfet_01v8_lvt L=1 W=1 nf=1 ad='int((nf+1)/2) * W/nf * 0.29' as='int((nf+2)/2) * W/nf * 0.29' pd='2*int((nf+1)/2) * (W/nf + 0.29)'
+ ps='2*int((nf+2)/2) * (W/nf + 0.29)' nrd='0.29 / W' nrs='0.29 / W' sa=0 sb=0 sd=0 mult=1 m=1
XM7 VDD net1 net2 GND sky130_fd_pr__nfet_01v8_lvt L=0.15 W=1 nf=1 ad='int((nf+1)/2) * W/nf * 0.29' as='int((nf+2)/2) * W/nf * 0.29'
+ pd='2*int((nf+1)/2) * (W/nf + 0.29)' ps='2*int((nf+2)/2) * (W/nf + 0.29)' nrd='0.29 / W' nrs='0.29 / W' sa=0 sb=0 sd=0 mult=1 m=1
XM1 VDD net6 AMP_OUT GND sky130_fd_pr__nfet_01v8_lvt L=1 W=1 nf=1 ad='int((nf+1)/2) * W/nf * 0.29' as='int((nf+2)/2) * W/nf * 0.29'
+ pd='2*int((nf+1)/2) * (W/nf + 0.29)' ps='2*int((nf+2)/2) * (W/nf + 0.29)' nrd='0.29 / W' nrs='0.29 / W' sa=0 sb=0 sd=0 mult=1 m=1
XM8 net5 net5 net7 VDD sky130_fd_pr__pfet_01v8_lvt L=2 W=1 nf=1 ad='int((nf+1)/2) * W/nf * 0.29' as='int((nf+2)/2) * W/nf * 0.29' pd='2*int((nf+1)/2) * (W/nf + 0.29)'
+ ps='2*int((nf+2)/2) * (W/nf + 0.29)' nrd='0.29 / W' nrs='0.29 / W' sa=0 sb=0 sd=0 mult=1 m=1
XM10 net8 net7 VDD VDD sky130_fd_pr__pfet_01v8_lvt L=2 W=1 nf=1 ad='int((nf+1)/2) * W/nf * 0.29' as='int((nf+2)/2) * W/nf * 0.29' pd='2*int((nf+1)/2) * (W/nf + 0.29)'
+ ps='2*int((nf+2)/2) * (W/nf + 0.29)' nrd='0.29 / W' nrs='0.29 / W' sa=0 sb=0 sd=0 mult=1 m=1
XM11 net7 net7 VDD VDD sky130_fd_pr__pfet_01v8_lvt L=2 W=1 nf=1 ad='int((nf+1)/2) * W/nf * 0.29' as='int((nf+2)/2) * W/nf * 0.29' pd='2*int((nf+1)/2) * (W/nf + 0.29)'
+ ps='2*int((nf+2)/2) * (W/nf + 0.29)' nrd='0.29 / W' nrs='0.29 / W' sa=0 sb=0 sd=0 mult=1 m=1
XM15 AMP_OUT NB2 GND GND sky130_fd_pr__nfet_01v8_lvt L=1.15 W=1 nf=1 ad='int((nf+1)/2) * W/nf * 0.29' as='int((nf+2)/2) * W/nf * 0.29'
+ pd='2*int((nf+1)/2) * (W/nf + 0.29)' ps='2*int((nf+2)/2) * (W/nf + 0.29)' nrd='0.29 / W' nrs='0.29 / W' sa=0 sb=0 sd=0 mult=1 m=1
XM16 net4 NB1 GND GND sky130_fd_pr__nfet_01v8_lvt L=1 W=1.2 nf=1 ad='int((nf+1)/2) * W/nf * 0.29' as='int((nf+2)/2) * W/nf * 0.29'
+ pd='2*int((nf+1)/2) * (W/nf + 0.29)' ps='2*int((nf+2)/2) * (W/nf + 0.29)' nrd='0.29 / W' nrs='0.29 / W' sa=0 sb=0 sd=0 mult=1 m=1
XC3 AMP_IN AMP_OUT sky130_fd_pr__cap_mim_m3_1 W=2 L=2 MF=1 m=1
XM4 net3 VREF net4 GND sky130_fd_pr__nfet_01v8_lvt L=0.15 W=7 nf=1 ad='int((nf+1)/2) * W/nf * 0.29' as='int((nf+2)/2) * W/nf * 0.29'
+ pd='2*int((nf+1)/2) * (W/nf + 0.29)' ps='2*int((nf+2)/2) * (W/nf + 0.29)' nrd='0.29 / W' nrs='0.29 / W' sa=0 sb=0 sd=0 mult=1 m=1
XM6 AMP_IN CSA_VREF AMP_OUT VDD sky130_fd_pr__pfet_01v8_lvt L=7.95 W=0.42 nf=1 ad='int((nf+1)/2) * W/nf * 0.29' as='int((nf+2)/2) * W/nf * 0.29'
+ pd='2*int((nf+1)/2) * (W/nf + 0.29)' ps='2*int((nf+2)/2) * (W/nf + 0.29)' nrd='0.29 / W' nrs='0.29 / W' sa=0 sb=0 sd=0 mult=1 m=1
XM9 net6 net5 net8 VDD sky130_fd_pr__pfet_01v8_lvt L=2 W=1 nf=1 ad='int((nf+1)/2) * W/nf * 0.29' as='int((nf+2)/2) * W/nf * 0.29' pd='2*int((nf+1)/2) * (W/nf + 0.29)'
+ ps='2*int((nf+2)/2) * (W/nf + 0.29)' nrd='0.29 / W' nrs='0.29 / W' sa=0 sb=0 sd=0 mult=1 m=1
XM12 net5 VBIAS net3 GND sky130_fd_pr__nfet_01v8_lvt L=0.8 W=1 nf=1 ad='int((nf+1)/2) * W/nf * 0.29' as='int((nf+2)/2) * W/nf * 0.29'
+ pd='2*int((nf+1)/2) * (W/nf + 0.29)' ps='2*int((nf+2)/2) * (W/nf + 0.29)' nrd='0.29 / W' nrs='0.29 / W' sa=0 sb=0 sd=0 mult=1 m=1
XM13 net9 AMP_IN net4 GND sky130_fd_pr__nfet_01v8_lvt L=0.15 W=7 nf=1 ad='int((nf+1)/2) * W/nf * 0.29' as='int((nf+2)/2) * W/nf * 0.29'
+ pd='2*int((nf+1)/2) * (W/nf + 0.29)' ps='2*int((nf+2)/2) * (W/nf + 0.29)' nrd='0.29 / W' nrs='0.29 / W' sa=0 sb=0 sd=0 mult=1 m=1
XM14 net6 VBIAS net9 GND sky130_fd_pr__nfet_01v8_lvt L=0.8 W=1 nf=1 ad='int((nf+1)/2) * W/nf * 0.29' as='int((nf+2)/2) * W/nf * 0.29'
+ pd='2*int((nf+1)/2) * (W/nf + 0.29)' ps='2*int((nf+2)/2) * (W/nf + 0.29)' nrd='0.29 / W' nrs='0.29 / W' sa=0 sb=0 sd=0 mult=1 m=1
XMD_4 GND GND GND GND sky130_fd_pr__nfet_01v8_lvt L=0.35 W=2.6 nf=1 ad='int((nf+1)/2) * W/nf * 0.29' as='int((nf+2)/2) * W/nf * 0.29'
+ pd='2*int((nf+1)/2) * (W/nf + 0.29)' ps='2*int((nf+2)/2) * (W/nf + 0.29)' nrd='0.29 / W' nrs='0.29 / W' sa=0 sb=0 sd=0 mult=1 m=1
XMD_1 GND GND GND GND sky130_fd_pr__nfet_01v8_lvt L=2 W=2 nf=1 ad='int((nf+1)/2) * W/nf * 0.29' as='int((nf+2)/2) * W/nf * 0.29' pd='2*int((nf+1)/2) * (W/nf + 0.29)'
+ ps='2*int((nf+2)/2) * (W/nf + 0.29)' nrd='0.29 / W' nrs='0.29 / W' sa=0 sb=0 sd=0 mult=1 m=1
XM17 VDD VDD VDD VDD sky130_fd_pr__pfet_01v8_lvt L=0.65 W=0.65 nf=1 ad='int((nf+1)/2) * W/nf * 0.29' as='int((nf+2)/2) * W/nf * 0.29'
+ pd='2*int((nf+1)/2) * (W/nf + 0.29)' ps='2*int((nf+2)/2) * (W/nf + 0.29)' nrd='0.29 / W' nrs='0.29 / W' sa=0 sb=0 sd=0 mult=1 m=1
XMD_2 GND GND GND GND sky130_fd_pr__nfet_01v8_lvt L=3.35 W=2 nf=1 ad='int((nf+1)/2) * W/nf * 0.29' as='int((nf+2)/2) * W/nf * 0.29'
+ pd='2*int((nf+1)/2) * (W/nf + 0.29)' ps='2*int((nf+2)/2) * (W/nf + 0.29)' nrd='0.29 / W' nrs='0.29 / W' sa=0 sb=0 sd=0 mult=1 m=1
.ends


* expanding   symbol:  array100.sym # of pins=12
** sym_path: /home/hni/TopmetalSe-Respin/xschem/array100.sym
** sch_path: /home/hni/TopmetalSe-Respin/xschem/array100.sch
.subckt array100 VDD GND SF_IB gring VBIAS ARRAY_OUT ROW_SEL[0] ROW_SEL[1] ROW_SEL[2] ROW_SEL[3] ROW_SEL[4] ROW_SEL[5] ROW_SEL[6]
+ ROW_SEL[7] ROW_SEL[8] ROW_SEL[9] ROW_SEL[10] ROW_SEL[11] ROW_SEL[12] ROW_SEL[13] ROW_SEL[14] ROW_SEL[15] ROW_SEL[16] ROW_SEL[17] ROW_SEL[18]
+ ROW_SEL[19] ROW_SEL[20] ROW_SEL[21] ROW_SEL[22] ROW_SEL[23] ROW_SEL[24] ROW_SEL[25] ROW_SEL[26] ROW_SEL[27] ROW_SEL[28] ROW_SEL[29]
+ ROW_SEL[30] ROW_SEL[31] ROW_SEL[32] ROW_SEL[33] ROW_SEL[34] ROW_SEL[35] ROW_SEL[36] ROW_SEL[37] ROW_SEL[38] ROW_SEL[39] ROW_SEL[40]
+ ROW_SEL[41] ROW_SEL[42] ROW_SEL[43] ROW_SEL[44] ROW_SEL[45] ROW_SEL[46] ROW_SEL[47] ROW_SEL[48] ROW_SEL[49] ROW_SEL[50] ROW_SEL[51]
+ ROW_SEL[52] ROW_SEL[53] ROW_SEL[54] ROW_SEL[55] ROW_SEL[56] ROW_SEL[57] ROW_SEL[58] ROW_SEL[59] ROW_SEL[60] ROW_SEL[61] ROW_SEL[62]
+ ROW_SEL[63] ROW_SEL[64] ROW_SEL[65] ROW_SEL[66] ROW_SEL[67] ROW_SEL[68] ROW_SEL[69] ROW_SEL[70] ROW_SEL[71] ROW_SEL[72] ROW_SEL[73]
+ ROW_SEL[74] ROW_SEL[75] ROW_SEL[76] ROW_SEL[77] ROW_SEL[78] ROW_SEL[79] ROW_SEL[80] ROW_SEL[81] ROW_SEL[82] ROW_SEL[83] ROW_SEL[84]
+ ROW_SEL[85] ROW_SEL[86] ROW_SEL[87] ROW_SEL[88] ROW_SEL[89] ROW_SEL[90] ROW_SEL[91] ROW_SEL[92] ROW_SEL[93] ROW_SEL[94] ROW_SEL[95]
+ ROW_SEL[96] ROW_SEL[97] ROW_SEL[98] ROW_SEL[99] VREF NB2 NB1 CSA_VREF COL_SEL[0] COL_SEL[1] COL_SEL[2] COL_SEL[3] COL_SEL[4] COL_SEL[5]
+ COL_SEL[6] COL_SEL[7] COL_SEL[8] COL_SEL[9] COL_SEL[10] COL_SEL[11] COL_SEL[12] COL_SEL[13] COL_SEL[14] COL_SEL[15] COL_SEL[16] COL_SEL[17]
+ COL_SEL[18] COL_SEL[19] COL_SEL[20] COL_SEL[21] COL_SEL[22] COL_SEL[23] COL_SEL[24] COL_SEL[25] COL_SEL[26] COL_SEL[27] COL_SEL[28]
+ COL_SEL[29] COL_SEL[30] COL_SEL[31] COL_SEL[32] COL_SEL[33] COL_SEL[34] COL_SEL[35] COL_SEL[36] COL_SEL[37] COL_SEL[38] COL_SEL[39]
+ COL_SEL[40] COL_SEL[41] COL_SEL[42] COL_SEL[43] COL_SEL[44] COL_SEL[45] COL_SEL[46] COL_SEL[47] COL_SEL[48] COL_SEL[49] COL_SEL[50]
+ COL_SEL[51] COL_SEL[52] COL_SEL[53] COL_SEL[54] COL_SEL[55] COL_SEL[56] COL_SEL[57] COL_SEL[58] COL_SEL[59] COL_SEL[60] COL_SEL[61]
+ COL_SEL[62] COL_SEL[63] COL_SEL[64] COL_SEL[65] COL_SEL[66] COL_SEL[67] COL_SEL[68] COL_SEL[69] COL_SEL[70] COL_SEL[71] COL_SEL[72]
+ COL_SEL[73] COL_SEL[74] COL_SEL[75] COL_SEL[76] COL_SEL[77] COL_SEL[78] COL_SEL[79] COL_SEL[80] COL_SEL[81] COL_SEL[82] COL_SEL[83]