* NGSPICE file created from pixel_array100x100.ext - technology: sky130A

.subckt pixel gring VDD GND VREF ROW_SEL NB1 VBIAS NB2 AMP_IN SF_IB PIX_OUT CSA_VREF
X0 GND GND GND GND sky130_fd_pr__nfet_01v8_lvt ad=3.5 pd=7.5 as=25.284374 ps=56.25 w=2 l=2
X1 VDD VDD VDD VDD sky130_fd_pr__pfet_01v8_lvt ad=0.2925 pd=2.2 as=1.57 ps=12.3 w=0.65 l=0.65
X2 a_4120_n520# VBIAS a_4120_n750# GND sky130_fd_pr__nfet_01v8_lvt ad=0.35 pd=2.7 as=1.995 ps=8.8 w=1 l=0.8
X3 a_5720_n730# a_4600_n810# GND VDD sky130_fd_pr__pfet_01v8_lvt ad=0.25 pd=1.5 as=0.35 ps=2.7 w=1 l=1
X4 VDD SF_IB a_5720_n730# VDD sky130_fd_pr__pfet_01v8_lvt ad=0.35 pd=2.7 as=0.25 ps=1.5 w=1 l=1
X5 a_5460_10# a_4350_10# VDD VDD sky130_fd_pr__pfet_01v8_lvt ad=0.175 pd=1.35 as=0.35 ps=2.7 w=1 l=2
X6 a_3860_n520# VBIAS a_3860_n1150# GND sky130_fd_pr__nfet_01v8_lvt ad=0.35 pd=2.7 as=1.76 ps=8.8 w=1 l=0.8
X7 VDD a_4120_n520# a_4600_n810# GND sky130_fd_pr__nfet_01v8_lvt ad=0.3 pd=2.6 as=0.25 ps=1.5 w=1 l=1
X8 a_4350_10# a_3860_n520# a_3860_n520# VDD sky130_fd_pr__pfet_01v8_lvt ad=0.175 pd=1.35 as=0.35 ps=2.7 w=1 l=2
X9 a_4120_n750# AMP_IN a_4050_n2590# GND sky130_fd_pr__nfet_01v8_lvt ad=1.995 pd=8.8 as=1.4 ps=7.4 w=7 l=0.15
X10 GND GND GND GND sky130_fd_pr__nfet_01v8_lvt ad=3.119375 pd=7.15 as=0 ps=0 w=2 l=3.35
X11 a_4120_n520# a_3860_n520# a_5460_10# VDD sky130_fd_pr__pfet_01v8_lvt ad=0.35 pd=2.7 as=0.175 ps=1.35 w=1 l=2
X12 GND NB1 a_4050_n2590# GND sky130_fd_pr__nfet_01v8_lvt ad=0.42 pd=3.1 as=0.42 ps=3.1 w=1.2 l=1
X13 a_5750_n920# ROW_SEL PIX_OUT GND sky130_fd_pr__nfet_01v8_lvt ad=0.6 pd=2.95 as=5.4 ps=9.4 w=2 l=1
X14 a_4050_n2590# VREF a_3860_n1150# GND sky130_fd_pr__nfet_01v8_lvt ad=1.4 pd=7.4 as=1.76 ps=8.8 w=7 l=0.15
X15 a_4600_n810# NB2 GND GND sky130_fd_pr__nfet_01v8_lvt ad=0.25 pd=1.5 as=0.5 ps=3 w=1 l=1.15
X16 AMP_IN a_4600_n810# sky130_fd_pr__cap_mim_m3_1 l=2 w=2
X17 VDD a_4350_10# a_4350_10# VDD sky130_fd_pr__pfet_01v8_lvt ad=0.35 pd=2.7 as=0.175 ps=1.35 w=1 l=2
X18 VDD a_5720_n730# a_5750_n920# GND sky130_fd_pr__nfet_01v8_lvt ad=0.35 pd=2.7 as=0.6 ps=2.95 w=1 l=0.15
X19 AMP_IN CSA_VREF a_4600_n810# VDD sky130_fd_pr__pfet_01v8_lvt ad=0.294 pd=2.24 as=0.273 ps=2.14 w=0.42 l=8
X20 GND GND GND GND sky130_fd_pr__nfet_01v8_lvt ad=10.715 pd=15.9 as=0 ps=0 w=2.6 l=0.35
.ends

.subckt pixel_array100x100 VBIAS VREF NB2 VDD NB1 ROW_SEL[0] GRING GND ROW_SEL[1]
+ ROW_SEL[2] ROW_SEL[3] ROW_SEL[4] ROW_SEL[5] ROW_SEL[6] ROW_SEL[7] ROW_SEL[8] ROW_SEL[9]
+ ROW_SEL[10] ROW_SEL[11] ROW_SEL[12] ROW_SEL[13] ROW_SEL[14] ROW_SEL[15] ROW_SEL[16]
+ ROW_SEL[17] ROW_SEL[18] ROW_SEL[19] ROW_SEL[20] ROW_SEL[21] ROW_SEL[22] ROW_SEL[23]
+ ROW_SEL[24] ROW_SEL[25] ROW_SEL[26] ROW_SEL[27] ROW_SEL[28] ROW_SEL[29] ROW_SEL[30]
+ ROW_SEL[31] ROW_SEL[32] ROW_SEL[33] ROW_SEL[34] ROW_SEL[35] ROW_SEL[36] ROW_SEL[37]
+ ROW_SEL[38] ROW_SEL[39] ROW_SEL[40] ROW_SEL[41] ROW_SEL[42] ROW_SEL[43] ROW_SEL[44]
+ ROW_SEL[45] ROW_SEL[46] ROW_SEL[47] ROW_SEL[48] ROW_SEL[49] ROW_SEL[50] ROW_SEL[51]
+ ROW_SEL[52] ROW_SEL[53] ROW_SEL[54] ROW_SEL[55] ROW_SEL[56] ROW_SEL[57] ROW_SEL[58]
+ ROW_SEL[59] ROW_SEL[60] ROW_SEL[61] ROW_SEL[62] ROW_SEL[63] ROW_SEL[64] ROW_SEL[65]
+ ROW_SEL[66] ROW_SEL[67] ROW_SEL[68] ROW_SEL[69] ROW_SEL[70] ROW_SEL[71] ROW_SEL[72]
+ ROW_SEL[73] ROW_SEL[74] ROW_SEL[75] ROW_SEL[76] ROW_SEL[77] ROW_SEL[78] ROW_SEL[79]
+ ROW_SEL[80] ROW_SEL[81] ROW_SEL[82] ROW_SEL[83] ROW_SEL[84] ROW_SEL[85] ROW_SEL[86]
+ ROW_SEL[87] ROW_SEL[88] ROW_SEL[89] ROW_SEL[90] ROW_SEL[91] ROW_SEL[92] ROW_SEL[93]
+ ROW_SEL[94] ROW_SEL[95] ROW_SEL[96] ROW_SEL[97] ROW_SEL[98] PIX_OUT0 COL_SEL[0]
+ CSA_VREF ROW_SEL[99] PIX_OUT1 COL_SEL[1] PIX_OUT2 COL_SEL[2] PIX_OUT3 COL_SEL[3]
+ PIX_OUT4 COL_SEL[4] PIX_OUT5 COL_SEL[5] PIX_OUT6 COL_SEL[6] PIX_OUT7 COL_SEL[7]
+ PIX_OUT8 COL_SEL[8] PIX_OUT9 COL_SEL[9] PIX_OUT10 COL_SEL[10] PIX_OUT11 COL_SEL[11]
+ PIX_OUT12 COL_SEL[12] PIX_OUT13 COL_SEL[13] PIX_OUT14 COL_SEL[14] PIX_OUT15 COL_SEL[15]
+ PIX_OUT16 COL_SEL[16] PIX_OUT17 COL_SEL[17] PIX_OUT18 COL_SEL[18] PIX_OUT19 COL_SEL[19]
+ PIX_OUT20 COL_SEL[20] PIX_OUT21 COL_SEL[21] PIX_OUT22 COL_SEL[22] PIX_OUT23 COL_SEL[23]
+ PIX_OUT24 COL_SEL[24] PIX_OUT25 COL_SEL[25] PIX_OUT26 COL_SEL[26] PIX_OUT27 COL_SEL[27]
+ PIX_OUT28 COL_SEL[28] PIX_OUT29 COL_SEL[29] PIX_OUT30 COL_SEL[30] PIX_OUT31 COL_SEL[31]
+ PIX_OUT32 COL_SEL[32] PIX_OUT33 COL_SEL[33] PIX_OUT34 COL_SEL[34] PIX_OUT35 COL_SEL[35]
+ PIX_OUT36 COL_SEL[36] PIX_OUT37 COL_SEL[37] PIX_OUT38 COL_SEL[38] PIX_OUT39 COL_SEL[39]
+ PIX_OUT40 COL_SEL[40] PIX_OUT41 COL_SEL[41] PIX_OUT42 COL_SEL[42] PIX_OUT43 COL_SEL[43]
+ PIX_OUT44 COL_SEL[44] PIX_OUT45 COL_SEL[45] PIX_OUT46 COL_SEL[46] PIX_OUT47 COL_SEL[47]
+ PIX_OUT48 COL_SEL[48] PIX_OUT49 COL_SEL[49] PIX_OUT50 COL_SEL[50] PIX_OUT51 COL_SEL[51]
+ PIX_OUT52 COL_SEL[52] PIX_OUT53 COL_SEL[53] PIX_OUT54 COL_SEL[54] PIX_OUT55 COL_SEL[55]
+ PIX_OUT56 COL_SEL[56] PIX_OUT57 COL_SEL[57] PIX_OUT58 COL_SEL[58] PIX_OUT59 COL_SEL[59]
+ PIX_OUT60 COL_SEL[60] PIX_OUT61 COL_SEL[61] PIX_OUT62 COL_SEL[62] PIX_OUT63 COL_SEL[63]
+ PIX_OUT64 COL_SEL[64] PIX_OUT65 COL_SEL[65] PIX_OUT66 COL_SEL[66] PIX_OUT67 COL_SEL[67]
+ PIX_OUT68 COL_SEL[68] PIX_OUT69 COL_SEL[69] PIX_OUT70 COL_SEL[70] PIX_OUT71 COL_SEL[71]
+ PIX_OUT72 COL_SEL[72] PIX_OUT73 COL_SEL[73] PIX_OUT74 COL_SEL[74] PIX_OUT75 COL_SEL[75]
+ PIX_OUT76 COL_SEL[76] PIX_OUT77 COL_SEL[77] PIX_OUT78 COL_SEL[78] PIX_OUT79 COL_SEL[79]
+ PIX_OUT80 COL_SEL[80] PIX_OUT81 COL_SEL[81] PIX_OUT82 COL_SEL[82] PIX_OUT83 COL_SEL[83]
+ PIX_OUT84 COL_SEL[84] PIX_OUT85 COL_SEL[85] PIX_OUT86 COL_SEL[86] PIX_OUT87 COL_SEL[87]
+ PIX_OUT88 COL_SEL[88] PIX_OUT89 COL_SEL[89] PIX_OUT90 COL_SEL[90] PIX_OUT91 COL_SEL[91]
+ PIX_OUT92 COL_SEL[92] PIX_OUT93 COL_SEL[93] PIX_OUT94 COL_SEL[94] PIX_OUT95 COL_SEL[95]
+ PIX_OUT96 COL_SEL[96] PIX_OUT97 COL_SEL[97] PIX_OUT98 COL_SEL[98] PIX_OUT99 ARRAY_OUT
+ COL_SEL[99] SF_IB
Xpixel_9273 pixel_9273/gring pixel_9273/VDD pixel_9273/GND pixel_9273/VREF pixel_9273/ROW_SEL
+ pixel_9273/NB1 pixel_9273/VBIAS pixel_9273/NB2 pixel_9273/AMP_IN pixel_9273/SF_IB
+ pixel_9273/PIX_OUT pixel_9273/CSA_VREF pixel
Xpixel_9262 pixel_9262/gring pixel_9262/VDD pixel_9262/GND pixel_9262/VREF pixel_9262/ROW_SEL
+ pixel_9262/NB1 pixel_9262/VBIAS pixel_9262/NB2 pixel_9262/AMP_IN pixel_9262/SF_IB
+ pixel_9262/PIX_OUT pixel_9262/CSA_VREF pixel
Xpixel_9251 pixel_9251/gring pixel_9251/VDD pixel_9251/GND pixel_9251/VREF pixel_9251/ROW_SEL
+ pixel_9251/NB1 pixel_9251/VBIAS pixel_9251/NB2 pixel_9251/AMP_IN pixel_9251/SF_IB
+ pixel_9251/PIX_OUT pixel_9251/CSA_VREF pixel
Xpixel_8572 pixel_8572/gring pixel_8572/VDD pixel_8572/GND pixel_8572/VREF pixel_8572/ROW_SEL
+ pixel_8572/NB1 pixel_8572/VBIAS pixel_8572/NB2 pixel_8572/AMP_IN pixel_8572/SF_IB
+ pixel_8572/PIX_OUT pixel_8572/CSA_VREF pixel
Xpixel_8561 pixel_8561/gring pixel_8561/VDD pixel_8561/GND pixel_8561/VREF pixel_8561/ROW_SEL
+ pixel_8561/NB1 pixel_8561/VBIAS pixel_8561/NB2 pixel_8561/AMP_IN pixel_8561/SF_IB
+ pixel_8561/PIX_OUT pixel_8561/CSA_VREF pixel
Xpixel_8550 pixel_8550/gring pixel_8550/VDD pixel_8550/GND pixel_8550/VREF pixel_8550/ROW_SEL
+ pixel_8550/NB1 pixel_8550/VBIAS pixel_8550/NB2 pixel_8550/AMP_IN pixel_8550/SF_IB
+ pixel_8550/PIX_OUT pixel_8550/CSA_VREF pixel
Xpixel_9295 pixel_9295/gring pixel_9295/VDD pixel_9295/GND pixel_9295/VREF pixel_9295/ROW_SEL
+ pixel_9295/NB1 pixel_9295/VBIAS pixel_9295/NB2 pixel_9295/AMP_IN pixel_9295/SF_IB
+ pixel_9295/PIX_OUT pixel_9295/CSA_VREF pixel
Xpixel_9284 pixel_9284/gring pixel_9284/VDD pixel_9284/GND pixel_9284/VREF pixel_9284/ROW_SEL
+ pixel_9284/NB1 pixel_9284/VBIAS pixel_9284/NB2 pixel_9284/AMP_IN pixel_9284/SF_IB
+ pixel_9284/PIX_OUT pixel_9284/CSA_VREF pixel
Xpixel_8594 pixel_8594/gring pixel_8594/VDD pixel_8594/GND pixel_8594/VREF pixel_8594/ROW_SEL
+ pixel_8594/NB1 pixel_8594/VBIAS pixel_8594/NB2 pixel_8594/AMP_IN pixel_8594/SF_IB
+ pixel_8594/PIX_OUT pixel_8594/CSA_VREF pixel
Xpixel_8583 pixel_8583/gring pixel_8583/VDD pixel_8583/GND pixel_8583/VREF pixel_8583/ROW_SEL
+ pixel_8583/NB1 pixel_8583/VBIAS pixel_8583/NB2 pixel_8583/AMP_IN pixel_8583/SF_IB
+ pixel_8583/PIX_OUT pixel_8583/CSA_VREF pixel
Xpixel_7860 pixel_7860/gring pixel_7860/VDD pixel_7860/GND pixel_7860/VREF pixel_7860/ROW_SEL
+ pixel_7860/NB1 pixel_7860/VBIAS pixel_7860/NB2 pixel_7860/AMP_IN pixel_7860/SF_IB
+ pixel_7860/PIX_OUT pixel_7860/CSA_VREF pixel
Xpixel_7871 pixel_7871/gring pixel_7871/VDD pixel_7871/GND pixel_7871/VREF pixel_7871/ROW_SEL
+ pixel_7871/NB1 pixel_7871/VBIAS pixel_7871/NB2 pixel_7871/AMP_IN pixel_7871/SF_IB
+ pixel_7871/PIX_OUT pixel_7871/CSA_VREF pixel
Xpixel_7882 pixel_7882/gring pixel_7882/VDD pixel_7882/GND pixel_7882/VREF pixel_7882/ROW_SEL
+ pixel_7882/NB1 pixel_7882/VBIAS pixel_7882/NB2 pixel_7882/AMP_IN pixel_7882/SF_IB
+ pixel_7882/PIX_OUT pixel_7882/CSA_VREF pixel
Xpixel_7893 pixel_7893/gring pixel_7893/VDD pixel_7893/GND pixel_7893/VREF pixel_7893/ROW_SEL
+ pixel_7893/NB1 pixel_7893/VBIAS pixel_7893/NB2 pixel_7893/AMP_IN pixel_7893/SF_IB
+ pixel_7893/PIX_OUT pixel_7893/CSA_VREF pixel
Xpixel_5209 pixel_5209/gring pixel_5209/VDD pixel_5209/GND pixel_5209/VREF pixel_5209/ROW_SEL
+ pixel_5209/NB1 pixel_5209/VBIAS pixel_5209/NB2 pixel_5209/AMP_IN pixel_5209/SF_IB
+ pixel_5209/PIX_OUT pixel_5209/CSA_VREF pixel
Xpixel_514 pixel_514/gring pixel_514/VDD pixel_514/GND pixel_514/VREF pixel_514/ROW_SEL
+ pixel_514/NB1 pixel_514/VBIAS pixel_514/NB2 pixel_514/AMP_IN pixel_514/SF_IB pixel_514/PIX_OUT
+ pixel_514/CSA_VREF pixel
Xpixel_503 pixel_503/gring pixel_503/VDD pixel_503/GND pixel_503/VREF pixel_503/ROW_SEL
+ pixel_503/NB1 pixel_503/VBIAS pixel_503/NB2 pixel_503/AMP_IN pixel_503/SF_IB pixel_503/PIX_OUT
+ pixel_503/CSA_VREF pixel
Xpixel_4508 pixel_4508/gring pixel_4508/VDD pixel_4508/GND pixel_4508/VREF pixel_4508/ROW_SEL
+ pixel_4508/NB1 pixel_4508/VBIAS pixel_4508/NB2 pixel_4508/AMP_IN pixel_4508/SF_IB
+ pixel_4508/PIX_OUT pixel_4508/CSA_VREF pixel
Xpixel_4519 pixel_4519/gring pixel_4519/VDD pixel_4519/GND pixel_4519/VREF pixel_4519/ROW_SEL
+ pixel_4519/NB1 pixel_4519/VBIAS pixel_4519/NB2 pixel_4519/AMP_IN pixel_4519/SF_IB
+ pixel_4519/PIX_OUT pixel_4519/CSA_VREF pixel
Xpixel_547 pixel_547/gring pixel_547/VDD pixel_547/GND pixel_547/VREF pixel_547/ROW_SEL
+ pixel_547/NB1 pixel_547/VBIAS pixel_547/NB2 pixel_547/AMP_IN pixel_547/SF_IB pixel_547/PIX_OUT
+ pixel_547/CSA_VREF pixel
Xpixel_536 pixel_536/gring pixel_536/VDD pixel_536/GND pixel_536/VREF pixel_536/ROW_SEL
+ pixel_536/NB1 pixel_536/VBIAS pixel_536/NB2 pixel_536/AMP_IN pixel_536/SF_IB pixel_536/PIX_OUT
+ pixel_536/CSA_VREF pixel
Xpixel_525 pixel_525/gring pixel_525/VDD pixel_525/GND pixel_525/VREF pixel_525/ROW_SEL
+ pixel_525/NB1 pixel_525/VBIAS pixel_525/NB2 pixel_525/AMP_IN pixel_525/SF_IB pixel_525/PIX_OUT
+ pixel_525/CSA_VREF pixel
Xpixel_3807 pixel_3807/gring pixel_3807/VDD pixel_3807/GND pixel_3807/VREF pixel_3807/ROW_SEL
+ pixel_3807/NB1 pixel_3807/VBIAS pixel_3807/NB2 pixel_3807/AMP_IN pixel_3807/SF_IB
+ pixel_3807/PIX_OUT pixel_3807/CSA_VREF pixel
Xpixel_569 pixel_569/gring pixel_569/VDD pixel_569/GND pixel_569/VREF pixel_569/ROW_SEL
+ pixel_569/NB1 pixel_569/VBIAS pixel_569/NB2 pixel_569/AMP_IN pixel_569/SF_IB pixel_569/PIX_OUT
+ pixel_569/CSA_VREF pixel
Xpixel_558 pixel_558/gring pixel_558/VDD pixel_558/GND pixel_558/VREF pixel_558/ROW_SEL
+ pixel_558/NB1 pixel_558/VBIAS pixel_558/NB2 pixel_558/AMP_IN pixel_558/SF_IB pixel_558/PIX_OUT
+ pixel_558/CSA_VREF pixel
Xpixel_3818 pixel_3818/gring pixel_3818/VDD pixel_3818/GND pixel_3818/VREF pixel_3818/ROW_SEL
+ pixel_3818/NB1 pixel_3818/VBIAS pixel_3818/NB2 pixel_3818/AMP_IN pixel_3818/SF_IB
+ pixel_3818/PIX_OUT pixel_3818/CSA_VREF pixel
Xpixel_3829 pixel_3829/gring pixel_3829/VDD pixel_3829/GND pixel_3829/VREF pixel_3829/ROW_SEL
+ pixel_3829/NB1 pixel_3829/VBIAS pixel_3829/NB2 pixel_3829/AMP_IN pixel_3829/SF_IB
+ pixel_3829/PIX_OUT pixel_3829/CSA_VREF pixel
Xpixel_7101 pixel_7101/gring pixel_7101/VDD pixel_7101/GND pixel_7101/VREF pixel_7101/ROW_SEL
+ pixel_7101/NB1 pixel_7101/VBIAS pixel_7101/NB2 pixel_7101/AMP_IN pixel_7101/SF_IB
+ pixel_7101/PIX_OUT pixel_7101/CSA_VREF pixel
Xpixel_7112 pixel_7112/gring pixel_7112/VDD pixel_7112/GND pixel_7112/VREF pixel_7112/ROW_SEL
+ pixel_7112/NB1 pixel_7112/VBIAS pixel_7112/NB2 pixel_7112/AMP_IN pixel_7112/SF_IB
+ pixel_7112/PIX_OUT pixel_7112/CSA_VREF pixel
Xpixel_7123 pixel_7123/gring pixel_7123/VDD pixel_7123/GND pixel_7123/VREF pixel_7123/ROW_SEL
+ pixel_7123/NB1 pixel_7123/VBIAS pixel_7123/NB2 pixel_7123/AMP_IN pixel_7123/SF_IB
+ pixel_7123/PIX_OUT pixel_7123/CSA_VREF pixel
Xpixel_7134 pixel_7134/gring pixel_7134/VDD pixel_7134/GND pixel_7134/VREF pixel_7134/ROW_SEL
+ pixel_7134/NB1 pixel_7134/VBIAS pixel_7134/NB2 pixel_7134/AMP_IN pixel_7134/SF_IB
+ pixel_7134/PIX_OUT pixel_7134/CSA_VREF pixel
Xpixel_7145 pixel_7145/gring pixel_7145/VDD pixel_7145/GND pixel_7145/VREF pixel_7145/ROW_SEL
+ pixel_7145/NB1 pixel_7145/VBIAS pixel_7145/NB2 pixel_7145/AMP_IN pixel_7145/SF_IB
+ pixel_7145/PIX_OUT pixel_7145/CSA_VREF pixel
Xpixel_7156 pixel_7156/gring pixel_7156/VDD pixel_7156/GND pixel_7156/VREF pixel_7156/ROW_SEL
+ pixel_7156/NB1 pixel_7156/VBIAS pixel_7156/NB2 pixel_7156/AMP_IN pixel_7156/SF_IB
+ pixel_7156/PIX_OUT pixel_7156/CSA_VREF pixel
Xpixel_6400 pixel_6400/gring pixel_6400/VDD pixel_6400/GND pixel_6400/VREF pixel_6400/ROW_SEL
+ pixel_6400/NB1 pixel_6400/VBIAS pixel_6400/NB2 pixel_6400/AMP_IN pixel_6400/SF_IB
+ pixel_6400/PIX_OUT pixel_6400/CSA_VREF pixel
Xpixel_6411 pixel_6411/gring pixel_6411/VDD pixel_6411/GND pixel_6411/VREF pixel_6411/ROW_SEL
+ pixel_6411/NB1 pixel_6411/VBIAS pixel_6411/NB2 pixel_6411/AMP_IN pixel_6411/SF_IB
+ pixel_6411/PIX_OUT pixel_6411/CSA_VREF pixel
Xpixel_7167 pixel_7167/gring pixel_7167/VDD pixel_7167/GND pixel_7167/VREF pixel_7167/ROW_SEL
+ pixel_7167/NB1 pixel_7167/VBIAS pixel_7167/NB2 pixel_7167/AMP_IN pixel_7167/SF_IB
+ pixel_7167/PIX_OUT pixel_7167/CSA_VREF pixel
Xpixel_7178 pixel_7178/gring pixel_7178/VDD pixel_7178/GND pixel_7178/VREF pixel_7178/ROW_SEL
+ pixel_7178/NB1 pixel_7178/VBIAS pixel_7178/NB2 pixel_7178/AMP_IN pixel_7178/SF_IB
+ pixel_7178/PIX_OUT pixel_7178/CSA_VREF pixel
Xpixel_7189 pixel_7189/gring pixel_7189/VDD pixel_7189/GND pixel_7189/VREF pixel_7189/ROW_SEL
+ pixel_7189/NB1 pixel_7189/VBIAS pixel_7189/NB2 pixel_7189/AMP_IN pixel_7189/SF_IB
+ pixel_7189/PIX_OUT pixel_7189/CSA_VREF pixel
Xpixel_6422 pixel_6422/gring pixel_6422/VDD pixel_6422/GND pixel_6422/VREF pixel_6422/ROW_SEL
+ pixel_6422/NB1 pixel_6422/VBIAS pixel_6422/NB2 pixel_6422/AMP_IN pixel_6422/SF_IB
+ pixel_6422/PIX_OUT pixel_6422/CSA_VREF pixel
Xpixel_6433 pixel_6433/gring pixel_6433/VDD pixel_6433/GND pixel_6433/VREF pixel_6433/ROW_SEL
+ pixel_6433/NB1 pixel_6433/VBIAS pixel_6433/NB2 pixel_6433/AMP_IN pixel_6433/SF_IB
+ pixel_6433/PIX_OUT pixel_6433/CSA_VREF pixel
Xpixel_6444 pixel_6444/gring pixel_6444/VDD pixel_6444/GND pixel_6444/VREF pixel_6444/ROW_SEL
+ pixel_6444/NB1 pixel_6444/VBIAS pixel_6444/NB2 pixel_6444/AMP_IN pixel_6444/SF_IB
+ pixel_6444/PIX_OUT pixel_6444/CSA_VREF pixel
Xpixel_6455 pixel_6455/gring pixel_6455/VDD pixel_6455/GND pixel_6455/VREF pixel_6455/ROW_SEL
+ pixel_6455/NB1 pixel_6455/VBIAS pixel_6455/NB2 pixel_6455/AMP_IN pixel_6455/SF_IB
+ pixel_6455/PIX_OUT pixel_6455/CSA_VREF pixel
Xpixel_6466 pixel_6466/gring pixel_6466/VDD pixel_6466/GND pixel_6466/VREF pixel_6466/ROW_SEL
+ pixel_6466/NB1 pixel_6466/VBIAS pixel_6466/NB2 pixel_6466/AMP_IN pixel_6466/SF_IB
+ pixel_6466/PIX_OUT pixel_6466/CSA_VREF pixel
Xpixel_6477 pixel_6477/gring pixel_6477/VDD pixel_6477/GND pixel_6477/VREF pixel_6477/ROW_SEL
+ pixel_6477/NB1 pixel_6477/VBIAS pixel_6477/NB2 pixel_6477/AMP_IN pixel_6477/SF_IB
+ pixel_6477/PIX_OUT pixel_6477/CSA_VREF pixel
Xpixel_5710 pixel_5710/gring pixel_5710/VDD pixel_5710/GND pixel_5710/VREF pixel_5710/ROW_SEL
+ pixel_5710/NB1 pixel_5710/VBIAS pixel_5710/NB2 pixel_5710/AMP_IN pixel_5710/SF_IB
+ pixel_5710/PIX_OUT pixel_5710/CSA_VREF pixel
Xpixel_5721 pixel_5721/gring pixel_5721/VDD pixel_5721/GND pixel_5721/VREF pixel_5721/ROW_SEL
+ pixel_5721/NB1 pixel_5721/VBIAS pixel_5721/NB2 pixel_5721/AMP_IN pixel_5721/SF_IB
+ pixel_5721/PIX_OUT pixel_5721/CSA_VREF pixel
Xpixel_5732 pixel_5732/gring pixel_5732/VDD pixel_5732/GND pixel_5732/VREF pixel_5732/ROW_SEL
+ pixel_5732/NB1 pixel_5732/VBIAS pixel_5732/NB2 pixel_5732/AMP_IN pixel_5732/SF_IB
+ pixel_5732/PIX_OUT pixel_5732/CSA_VREF pixel
Xpixel_5743 pixel_5743/gring pixel_5743/VDD pixel_5743/GND pixel_5743/VREF pixel_5743/ROW_SEL
+ pixel_5743/NB1 pixel_5743/VBIAS pixel_5743/NB2 pixel_5743/AMP_IN pixel_5743/SF_IB
+ pixel_5743/PIX_OUT pixel_5743/CSA_VREF pixel
Xpixel_6488 pixel_6488/gring pixel_6488/VDD pixel_6488/GND pixel_6488/VREF pixel_6488/ROW_SEL
+ pixel_6488/NB1 pixel_6488/VBIAS pixel_6488/NB2 pixel_6488/AMP_IN pixel_6488/SF_IB
+ pixel_6488/PIX_OUT pixel_6488/CSA_VREF pixel
Xpixel_6499 pixel_6499/gring pixel_6499/VDD pixel_6499/GND pixel_6499/VREF pixel_6499/ROW_SEL
+ pixel_6499/NB1 pixel_6499/VBIAS pixel_6499/NB2 pixel_6499/AMP_IN pixel_6499/SF_IB
+ pixel_6499/PIX_OUT pixel_6499/CSA_VREF pixel
Xpixel_5754 pixel_5754/gring pixel_5754/VDD pixel_5754/GND pixel_5754/VREF pixel_5754/ROW_SEL
+ pixel_5754/NB1 pixel_5754/VBIAS pixel_5754/NB2 pixel_5754/AMP_IN pixel_5754/SF_IB
+ pixel_5754/PIX_OUT pixel_5754/CSA_VREF pixel
Xpixel_5765 pixel_5765/gring pixel_5765/VDD pixel_5765/GND pixel_5765/VREF pixel_5765/ROW_SEL
+ pixel_5765/NB1 pixel_5765/VBIAS pixel_5765/NB2 pixel_5765/AMP_IN pixel_5765/SF_IB
+ pixel_5765/PIX_OUT pixel_5765/CSA_VREF pixel
Xpixel_5776 pixel_5776/gring pixel_5776/VDD pixel_5776/GND pixel_5776/VREF pixel_5776/ROW_SEL
+ pixel_5776/NB1 pixel_5776/VBIAS pixel_5776/NB2 pixel_5776/AMP_IN pixel_5776/SF_IB
+ pixel_5776/PIX_OUT pixel_5776/CSA_VREF pixel
Xpixel_5787 pixel_5787/gring pixel_5787/VDD pixel_5787/GND pixel_5787/VREF pixel_5787/ROW_SEL
+ pixel_5787/NB1 pixel_5787/VBIAS pixel_5787/NB2 pixel_5787/AMP_IN pixel_5787/SF_IB
+ pixel_5787/PIX_OUT pixel_5787/CSA_VREF pixel
Xpixel_5798 pixel_5798/gring pixel_5798/VDD pixel_5798/GND pixel_5798/VREF pixel_5798/ROW_SEL
+ pixel_5798/NB1 pixel_5798/VBIAS pixel_5798/NB2 pixel_5798/AMP_IN pixel_5798/SF_IB
+ pixel_5798/PIX_OUT pixel_5798/CSA_VREF pixel
Xpixel_9081 pixel_9081/gring pixel_9081/VDD pixel_9081/GND pixel_9081/VREF pixel_9081/ROW_SEL
+ pixel_9081/NB1 pixel_9081/VBIAS pixel_9081/NB2 pixel_9081/AMP_IN pixel_9081/SF_IB
+ pixel_9081/PIX_OUT pixel_9081/CSA_VREF pixel
Xpixel_9070 pixel_9070/gring pixel_9070/VDD pixel_9070/GND pixel_9070/VREF pixel_9070/ROW_SEL
+ pixel_9070/NB1 pixel_9070/VBIAS pixel_9070/NB2 pixel_9070/AMP_IN pixel_9070/SF_IB
+ pixel_9070/PIX_OUT pixel_9070/CSA_VREF pixel
Xpixel_9092 pixel_9092/gring pixel_9092/VDD pixel_9092/GND pixel_9092/VREF pixel_9092/ROW_SEL
+ pixel_9092/NB1 pixel_9092/VBIAS pixel_9092/NB2 pixel_9092/AMP_IN pixel_9092/SF_IB
+ pixel_9092/PIX_OUT pixel_9092/CSA_VREF pixel
Xpixel_8380 pixel_8380/gring pixel_8380/VDD pixel_8380/GND pixel_8380/VREF pixel_8380/ROW_SEL
+ pixel_8380/NB1 pixel_8380/VBIAS pixel_8380/NB2 pixel_8380/AMP_IN pixel_8380/SF_IB
+ pixel_8380/PIX_OUT pixel_8380/CSA_VREF pixel
Xpixel_8391 pixel_8391/gring pixel_8391/VDD pixel_8391/GND pixel_8391/VREF pixel_8391/ROW_SEL
+ pixel_8391/NB1 pixel_8391/VBIAS pixel_8391/NB2 pixel_8391/AMP_IN pixel_8391/SF_IB
+ pixel_8391/PIX_OUT pixel_8391/CSA_VREF pixel
Xpixel_7690 pixel_7690/gring pixel_7690/VDD pixel_7690/GND pixel_7690/VREF pixel_7690/ROW_SEL
+ pixel_7690/NB1 pixel_7690/VBIAS pixel_7690/NB2 pixel_7690/AMP_IN pixel_7690/SF_IB
+ pixel_7690/PIX_OUT pixel_7690/CSA_VREF pixel
Xpixel_81 pixel_81/gring pixel_81/VDD pixel_81/GND pixel_81/VREF pixel_81/ROW_SEL
+ pixel_81/NB1 pixel_81/VBIAS pixel_81/NB2 pixel_81/AMP_IN pixel_81/SF_IB pixel_81/PIX_OUT
+ pixel_81/CSA_VREF pixel
Xpixel_70 pixel_70/gring pixel_70/VDD pixel_70/GND pixel_70/VREF pixel_70/ROW_SEL
+ pixel_70/NB1 pixel_70/VBIAS pixel_70/NB2 pixel_70/AMP_IN pixel_70/SF_IB pixel_70/PIX_OUT
+ pixel_70/CSA_VREF pixel
Xpixel_92 pixel_92/gring pixel_92/VDD pixel_92/GND pixel_92/VREF pixel_92/ROW_SEL
+ pixel_92/NB1 pixel_92/VBIAS pixel_92/NB2 pixel_92/AMP_IN pixel_92/SF_IB pixel_92/PIX_OUT
+ pixel_92/CSA_VREF pixel
Xpixel_5006 pixel_5006/gring pixel_5006/VDD pixel_5006/GND pixel_5006/VREF pixel_5006/ROW_SEL
+ pixel_5006/NB1 pixel_5006/VBIAS pixel_5006/NB2 pixel_5006/AMP_IN pixel_5006/SF_IB
+ pixel_5006/PIX_OUT pixel_5006/CSA_VREF pixel
Xpixel_5017 pixel_5017/gring pixel_5017/VDD pixel_5017/GND pixel_5017/VREF pixel_5017/ROW_SEL
+ pixel_5017/NB1 pixel_5017/VBIAS pixel_5017/NB2 pixel_5017/AMP_IN pixel_5017/SF_IB
+ pixel_5017/PIX_OUT pixel_5017/CSA_VREF pixel
Xpixel_5028 pixel_5028/gring pixel_5028/VDD pixel_5028/GND pixel_5028/VREF pixel_5028/ROW_SEL
+ pixel_5028/NB1 pixel_5028/VBIAS pixel_5028/NB2 pixel_5028/AMP_IN pixel_5028/SF_IB
+ pixel_5028/PIX_OUT pixel_5028/CSA_VREF pixel
Xpixel_322 pixel_322/gring pixel_322/VDD pixel_322/GND pixel_322/VREF pixel_322/ROW_SEL
+ pixel_322/NB1 pixel_322/VBIAS pixel_322/NB2 pixel_322/AMP_IN pixel_322/SF_IB pixel_322/PIX_OUT
+ pixel_322/CSA_VREF pixel
Xpixel_311 pixel_311/gring pixel_311/VDD pixel_311/GND pixel_311/VREF pixel_311/ROW_SEL
+ pixel_311/NB1 pixel_311/VBIAS pixel_311/NB2 pixel_311/AMP_IN pixel_311/SF_IB pixel_311/PIX_OUT
+ pixel_311/CSA_VREF pixel
Xpixel_300 pixel_300/gring pixel_300/VDD pixel_300/GND pixel_300/VREF pixel_300/ROW_SEL
+ pixel_300/NB1 pixel_300/VBIAS pixel_300/NB2 pixel_300/AMP_IN pixel_300/SF_IB pixel_300/PIX_OUT
+ pixel_300/CSA_VREF pixel
Xpixel_5039 pixel_5039/gring pixel_5039/VDD pixel_5039/GND pixel_5039/VREF pixel_5039/ROW_SEL
+ pixel_5039/NB1 pixel_5039/VBIAS pixel_5039/NB2 pixel_5039/AMP_IN pixel_5039/SF_IB
+ pixel_5039/PIX_OUT pixel_5039/CSA_VREF pixel
Xpixel_4305 pixel_4305/gring pixel_4305/VDD pixel_4305/GND pixel_4305/VREF pixel_4305/ROW_SEL
+ pixel_4305/NB1 pixel_4305/VBIAS pixel_4305/NB2 pixel_4305/AMP_IN pixel_4305/SF_IB
+ pixel_4305/PIX_OUT pixel_4305/CSA_VREF pixel
Xpixel_4316 pixel_4316/gring pixel_4316/VDD pixel_4316/GND pixel_4316/VREF pixel_4316/ROW_SEL
+ pixel_4316/NB1 pixel_4316/VBIAS pixel_4316/NB2 pixel_4316/AMP_IN pixel_4316/SF_IB
+ pixel_4316/PIX_OUT pixel_4316/CSA_VREF pixel
Xpixel_4327 pixel_4327/gring pixel_4327/VDD pixel_4327/GND pixel_4327/VREF pixel_4327/ROW_SEL
+ pixel_4327/NB1 pixel_4327/VBIAS pixel_4327/NB2 pixel_4327/AMP_IN pixel_4327/SF_IB
+ pixel_4327/PIX_OUT pixel_4327/CSA_VREF pixel
Xpixel_355 pixel_355/gring pixel_355/VDD pixel_355/GND pixel_355/VREF pixel_355/ROW_SEL
+ pixel_355/NB1 pixel_355/VBIAS pixel_355/NB2 pixel_355/AMP_IN pixel_355/SF_IB pixel_355/PIX_OUT
+ pixel_355/CSA_VREF pixel
Xpixel_344 pixel_344/gring pixel_344/VDD pixel_344/GND pixel_344/VREF pixel_344/ROW_SEL
+ pixel_344/NB1 pixel_344/VBIAS pixel_344/NB2 pixel_344/AMP_IN pixel_344/SF_IB pixel_344/PIX_OUT
+ pixel_344/CSA_VREF pixel
Xpixel_333 pixel_333/gring pixel_333/VDD pixel_333/GND pixel_333/VREF pixel_333/ROW_SEL
+ pixel_333/NB1 pixel_333/VBIAS pixel_333/NB2 pixel_333/AMP_IN pixel_333/SF_IB pixel_333/PIX_OUT
+ pixel_333/CSA_VREF pixel
Xpixel_3615 pixel_3615/gring pixel_3615/VDD pixel_3615/GND pixel_3615/VREF pixel_3615/ROW_SEL
+ pixel_3615/NB1 pixel_3615/VBIAS pixel_3615/NB2 pixel_3615/AMP_IN pixel_3615/SF_IB
+ pixel_3615/PIX_OUT pixel_3615/CSA_VREF pixel
Xpixel_3604 pixel_3604/gring pixel_3604/VDD pixel_3604/GND pixel_3604/VREF pixel_3604/ROW_SEL
+ pixel_3604/NB1 pixel_3604/VBIAS pixel_3604/NB2 pixel_3604/AMP_IN pixel_3604/SF_IB
+ pixel_3604/PIX_OUT pixel_3604/CSA_VREF pixel
Xpixel_4338 pixel_4338/gring pixel_4338/VDD pixel_4338/GND pixel_4338/VREF pixel_4338/ROW_SEL
+ pixel_4338/NB1 pixel_4338/VBIAS pixel_4338/NB2 pixel_4338/AMP_IN pixel_4338/SF_IB
+ pixel_4338/PIX_OUT pixel_4338/CSA_VREF pixel
Xpixel_4349 pixel_4349/gring pixel_4349/VDD pixel_4349/GND pixel_4349/VREF pixel_4349/ROW_SEL
+ pixel_4349/NB1 pixel_4349/VBIAS pixel_4349/NB2 pixel_4349/AMP_IN pixel_4349/SF_IB
+ pixel_4349/PIX_OUT pixel_4349/CSA_VREF pixel
Xpixel_399 pixel_399/gring pixel_399/VDD pixel_399/GND pixel_399/VREF pixel_399/ROW_SEL
+ pixel_399/NB1 pixel_399/VBIAS pixel_399/NB2 pixel_399/AMP_IN pixel_399/SF_IB pixel_399/PIX_OUT
+ pixel_399/CSA_VREF pixel
Xpixel_388 pixel_388/gring pixel_388/VDD pixel_388/GND pixel_388/VREF pixel_388/ROW_SEL
+ pixel_388/NB1 pixel_388/VBIAS pixel_388/NB2 pixel_388/AMP_IN pixel_388/SF_IB pixel_388/PIX_OUT
+ pixel_388/CSA_VREF pixel
Xpixel_377 pixel_377/gring pixel_377/VDD pixel_377/GND pixel_377/VREF pixel_377/ROW_SEL
+ pixel_377/NB1 pixel_377/VBIAS pixel_377/NB2 pixel_377/AMP_IN pixel_377/SF_IB pixel_377/PIX_OUT
+ pixel_377/CSA_VREF pixel
Xpixel_366 pixel_366/gring pixel_366/VDD pixel_366/GND pixel_366/VREF pixel_366/ROW_SEL
+ pixel_366/NB1 pixel_366/VBIAS pixel_366/NB2 pixel_366/AMP_IN pixel_366/SF_IB pixel_366/PIX_OUT
+ pixel_366/CSA_VREF pixel
Xpixel_2914 pixel_2914/gring pixel_2914/VDD pixel_2914/GND pixel_2914/VREF pixel_2914/ROW_SEL
+ pixel_2914/NB1 pixel_2914/VBIAS pixel_2914/NB2 pixel_2914/AMP_IN pixel_2914/SF_IB
+ pixel_2914/PIX_OUT pixel_2914/CSA_VREF pixel
Xpixel_2903 pixel_2903/gring pixel_2903/VDD pixel_2903/GND pixel_2903/VREF pixel_2903/ROW_SEL
+ pixel_2903/NB1 pixel_2903/VBIAS pixel_2903/NB2 pixel_2903/AMP_IN pixel_2903/SF_IB
+ pixel_2903/PIX_OUT pixel_2903/CSA_VREF pixel
Xpixel_3648 pixel_3648/gring pixel_3648/VDD pixel_3648/GND pixel_3648/VREF pixel_3648/ROW_SEL
+ pixel_3648/NB1 pixel_3648/VBIAS pixel_3648/NB2 pixel_3648/AMP_IN pixel_3648/SF_IB
+ pixel_3648/PIX_OUT pixel_3648/CSA_VREF pixel
Xpixel_3637 pixel_3637/gring pixel_3637/VDD pixel_3637/GND pixel_3637/VREF pixel_3637/ROW_SEL
+ pixel_3637/NB1 pixel_3637/VBIAS pixel_3637/NB2 pixel_3637/AMP_IN pixel_3637/SF_IB
+ pixel_3637/PIX_OUT pixel_3637/CSA_VREF pixel
Xpixel_3626 pixel_3626/gring pixel_3626/VDD pixel_3626/GND pixel_3626/VREF pixel_3626/ROW_SEL
+ pixel_3626/NB1 pixel_3626/VBIAS pixel_3626/NB2 pixel_3626/AMP_IN pixel_3626/SF_IB
+ pixel_3626/PIX_OUT pixel_3626/CSA_VREF pixel
Xpixel_2947 pixel_2947/gring pixel_2947/VDD pixel_2947/GND pixel_2947/VREF pixel_2947/ROW_SEL
+ pixel_2947/NB1 pixel_2947/VBIAS pixel_2947/NB2 pixel_2947/AMP_IN pixel_2947/SF_IB
+ pixel_2947/PIX_OUT pixel_2947/CSA_VREF pixel
Xpixel_2936 pixel_2936/gring pixel_2936/VDD pixel_2936/GND pixel_2936/VREF pixel_2936/ROW_SEL
+ pixel_2936/NB1 pixel_2936/VBIAS pixel_2936/NB2 pixel_2936/AMP_IN pixel_2936/SF_IB
+ pixel_2936/PIX_OUT pixel_2936/CSA_VREF pixel
Xpixel_2925 pixel_2925/gring pixel_2925/VDD pixel_2925/GND pixel_2925/VREF pixel_2925/ROW_SEL
+ pixel_2925/NB1 pixel_2925/VBIAS pixel_2925/NB2 pixel_2925/AMP_IN pixel_2925/SF_IB
+ pixel_2925/PIX_OUT pixel_2925/CSA_VREF pixel
Xpixel_3659 pixel_3659/gring pixel_3659/VDD pixel_3659/GND pixel_3659/VREF pixel_3659/ROW_SEL
+ pixel_3659/NB1 pixel_3659/VBIAS pixel_3659/NB2 pixel_3659/AMP_IN pixel_3659/SF_IB
+ pixel_3659/PIX_OUT pixel_3659/CSA_VREF pixel
Xpixel_2969 pixel_2969/gring pixel_2969/VDD pixel_2969/GND pixel_2969/VREF pixel_2969/ROW_SEL
+ pixel_2969/NB1 pixel_2969/VBIAS pixel_2969/NB2 pixel_2969/AMP_IN pixel_2969/SF_IB
+ pixel_2969/PIX_OUT pixel_2969/CSA_VREF pixel
Xpixel_2958 pixel_2958/gring pixel_2958/VDD pixel_2958/GND pixel_2958/VREF pixel_2958/ROW_SEL
+ pixel_2958/NB1 pixel_2958/VBIAS pixel_2958/NB2 pixel_2958/AMP_IN pixel_2958/SF_IB
+ pixel_2958/PIX_OUT pixel_2958/CSA_VREF pixel
Xpixel_6230 pixel_6230/gring pixel_6230/VDD pixel_6230/GND pixel_6230/VREF pixel_6230/ROW_SEL
+ pixel_6230/NB1 pixel_6230/VBIAS pixel_6230/NB2 pixel_6230/AMP_IN pixel_6230/SF_IB
+ pixel_6230/PIX_OUT pixel_6230/CSA_VREF pixel
Xpixel_6241 pixel_6241/gring pixel_6241/VDD pixel_6241/GND pixel_6241/VREF pixel_6241/ROW_SEL
+ pixel_6241/NB1 pixel_6241/VBIAS pixel_6241/NB2 pixel_6241/AMP_IN pixel_6241/SF_IB
+ pixel_6241/PIX_OUT pixel_6241/CSA_VREF pixel
Xpixel_6252 pixel_6252/gring pixel_6252/VDD pixel_6252/GND pixel_6252/VREF pixel_6252/ROW_SEL
+ pixel_6252/NB1 pixel_6252/VBIAS pixel_6252/NB2 pixel_6252/AMP_IN pixel_6252/SF_IB
+ pixel_6252/PIX_OUT pixel_6252/CSA_VREF pixel
Xpixel_6263 pixel_6263/gring pixel_6263/VDD pixel_6263/GND pixel_6263/VREF pixel_6263/ROW_SEL
+ pixel_6263/NB1 pixel_6263/VBIAS pixel_6263/NB2 pixel_6263/AMP_IN pixel_6263/SF_IB
+ pixel_6263/PIX_OUT pixel_6263/CSA_VREF pixel
Xpixel_6274 pixel_6274/gring pixel_6274/VDD pixel_6274/GND pixel_6274/VREF pixel_6274/ROW_SEL
+ pixel_6274/NB1 pixel_6274/VBIAS pixel_6274/NB2 pixel_6274/AMP_IN pixel_6274/SF_IB
+ pixel_6274/PIX_OUT pixel_6274/CSA_VREF pixel
Xpixel_6285 pixel_6285/gring pixel_6285/VDD pixel_6285/GND pixel_6285/VREF pixel_6285/ROW_SEL
+ pixel_6285/NB1 pixel_6285/VBIAS pixel_6285/NB2 pixel_6285/AMP_IN pixel_6285/SF_IB
+ pixel_6285/PIX_OUT pixel_6285/CSA_VREF pixel
Xpixel_6296 pixel_6296/gring pixel_6296/VDD pixel_6296/GND pixel_6296/VREF pixel_6296/ROW_SEL
+ pixel_6296/NB1 pixel_6296/VBIAS pixel_6296/NB2 pixel_6296/AMP_IN pixel_6296/SF_IB
+ pixel_6296/PIX_OUT pixel_6296/CSA_VREF pixel
Xpixel_5540 pixel_5540/gring pixel_5540/VDD pixel_5540/GND pixel_5540/VREF pixel_5540/ROW_SEL
+ pixel_5540/NB1 pixel_5540/VBIAS pixel_5540/NB2 pixel_5540/AMP_IN pixel_5540/SF_IB
+ pixel_5540/PIX_OUT pixel_5540/CSA_VREF pixel
Xpixel_5551 pixel_5551/gring pixel_5551/VDD pixel_5551/GND pixel_5551/VREF pixel_5551/ROW_SEL
+ pixel_5551/NB1 pixel_5551/VBIAS pixel_5551/NB2 pixel_5551/AMP_IN pixel_5551/SF_IB
+ pixel_5551/PIX_OUT pixel_5551/CSA_VREF pixel
Xpixel_5562 pixel_5562/gring pixel_5562/VDD pixel_5562/GND pixel_5562/VREF pixel_5562/ROW_SEL
+ pixel_5562/NB1 pixel_5562/VBIAS pixel_5562/NB2 pixel_5562/AMP_IN pixel_5562/SF_IB
+ pixel_5562/PIX_OUT pixel_5562/CSA_VREF pixel
Xpixel_5573 pixel_5573/gring pixel_5573/VDD pixel_5573/GND pixel_5573/VREF pixel_5573/ROW_SEL
+ pixel_5573/NB1 pixel_5573/VBIAS pixel_5573/NB2 pixel_5573/AMP_IN pixel_5573/SF_IB
+ pixel_5573/PIX_OUT pixel_5573/CSA_VREF pixel
Xpixel_5584 pixel_5584/gring pixel_5584/VDD pixel_5584/GND pixel_5584/VREF pixel_5584/ROW_SEL
+ pixel_5584/NB1 pixel_5584/VBIAS pixel_5584/NB2 pixel_5584/AMP_IN pixel_5584/SF_IB
+ pixel_5584/PIX_OUT pixel_5584/CSA_VREF pixel
Xpixel_5595 pixel_5595/gring pixel_5595/VDD pixel_5595/GND pixel_5595/VREF pixel_5595/ROW_SEL
+ pixel_5595/NB1 pixel_5595/VBIAS pixel_5595/NB2 pixel_5595/AMP_IN pixel_5595/SF_IB