* NGSPICE file created from user_analog_project_wrapper.ext - technology: sky130A

.subckt pixel gring VDD GND VREF ROW_SEL NB1 VBIAS NB2 AMP_IN SF_IB PIX_OUT CSA_VREF
X0 GND GND GND GND sky130_fd_pr__nfet_01v8_lvt ad=3.5 pd=7.5 as=24.809025 ps=56.34 w=2 l=1.44
X1 a_4120_n520# VBIAS a_4120_n750# GND sky130_fd_pr__nfet_01v8_lvt ad=0.35 pd=2.7 as=1.995 ps=8.8 w=1 l=0.8
X2 a_5720_n730# a_4600_n810# GND VDD sky130_fd_pr__pfet_01v8_lvt ad=0.25 pd=1.5 as=0.35 ps=2.7 w=1 l=1
X3 a_4330_n30# a_3852_n32# a_3852_n32# VDD sky130_fd_pr__pfet_01v8_lvt ad=0.23 pd=1.65 as=0.3927 ps=2.8 w=1 l=2
X4 VDD SF_IB a_5720_n730# VDD sky130_fd_pr__pfet_01v8_lvt ad=0.35 pd=2.7 as=0.25 ps=1.5 w=1 l=1
X5 a_5460_10# a_4330_n30# VDD VDD sky130_fd_pr__pfet_01v8_lvt ad=0.175 pd=1.35 as=0.35 ps=2.7 w=1 l=2
X6 a_3852_n32# VBIAS a_3860_n1150# GND sky130_fd_pr__nfet_01v8_lvt ad=0.35 pd=2.7 as=1.76 ps=8.8 w=1 l=0.8
X7 VDD a_4120_n520# a_4600_n810# GND sky130_fd_pr__nfet_01v8_lvt ad=0.3 pd=2.6 as=0.25 ps=1.5 w=1 l=1
X8 a_4120_n750# AMP_IN a_4050_n2590# GND sky130_fd_pr__nfet_01v8_lvt ad=1.995 pd=8.8 as=1.4 ps=7.4 w=7 l=0.15
X9 GND GND GND GND sky130_fd_pr__nfet_01v8_lvt ad=3.119375 pd=7.15 as=0 ps=0 w=2 l=3.35
X10 a_4120_n520# a_3852_n32# a_5460_10# VDD sky130_fd_pr__pfet_01v8_lvt ad=0.35 pd=2.7 as=0.175 ps=1.35 w=1 l=2
X11 AMP_IN a_4600_n810# sky130_fd_pr__cap_mim_m3_1 l=2 w=2
X12 GND NB1 a_4050_n2590# GND sky130_fd_pr__nfet_01v8_lvt ad=0.42 pd=3.1 as=0.42 ps=3.1 w=1.2 l=1
X13 a_5750_n920# ROW_SEL PIX_OUT GND sky130_fd_pr__nfet_01v8_lvt ad=0.6 pd=2.95 as=5.4 ps=9.4 w=2 l=1
X14 a_4050_n2590# VREF a_3860_n1150# GND sky130_fd_pr__nfet_01v8_lvt ad=1.4 pd=7.4 as=1.76 ps=8.8 w=7 l=0.15
X15 a_4600_n810# NB2 GND GND sky130_fd_pr__nfet_01v8_lvt ad=0.25 pd=1.5 as=0.5 ps=3 w=1 l=1.15
X16 VDD a_4330_n30# a_4330_n30# VDD sky130_fd_pr__pfet_01v8_lvt ad=0.35 pd=2.7 as=0.23 ps=1.65 w=1 l=2
X17 VDD a_5720_n730# a_5750_n920# GND sky130_fd_pr__nfet_01v8_lvt ad=0.35 pd=2.7 as=0.6 ps=2.95 w=1 l=0.15
X18 AMP_IN CSA_VREF a_4600_n810# VDD sky130_fd_pr__pfet_01v8_lvt ad=0.294 pd=2.24 as=0.273 ps=2.14 w=0.42 l=8
X19 GND GND GND GND sky130_fd_pr__nfet_01v8_lvt ad=10.715 pd=15.9 as=0 ps=0 w=2.6 l=0.35
.ends

.subckt pixel_array VBIAS VREF NB2 SF_IB CSA_VREF NB1 ROW_SEL0 ROW_SEL1 ROW_SEL2 PIX0_IN
+ GRING PIX1_IN PIX2_IN PIX3_IN PIX4_IN PIX5_IN PIX6_IN PIX_OUT0 PIX7_IN PIX_OUT1
+ PIX8_IN PIX_OUT2 ARRAY_OUT COL_SEL0 COL_SEl1 COL_SEL2 VDD GND
Xpixel_0 GRING VDD GND VREF ROW_SEL0 NB1 VBIAS NB2 PIX0_IN SF_IB PIX_OUT0 CSA_VREF
+ pixel
Xpixel_1 GRING VDD GND VREF ROW_SEL0 NB1 VBIAS NB2 PIX1_IN SF_IB PIX_OUT1 CSA_VREF
+ pixel
Xpixel_2 GRING VDD GND VREF ROW_SEL0 NB1 VBIAS NB2 PIX2_IN SF_IB PIX_OUT2 CSA_VREF
+ pixel
Xpixel_3 GRING VDD GND VREF ROW_SEL1 NB1 VBIAS NB2 PIX3_IN SF_IB PIX_OUT0 CSA_VREF
+ pixel
Xpixel_4 GRING VDD GND VREF ROW_SEL1 NB1 VBIAS NB2 PIX4_IN SF_IB PIX_OUT1 CSA_VREF
+ pixel
Xpixel_5 GRING VDD GND VREF ROW_SEL1 NB1 VBIAS NB2 PIX5_IN SF_IB PIX_OUT2 CSA_VREF
+ pixel
Xpixel_6 GRING VDD GND VREF ROW_SEL2 NB1 VBIAS NB2 PIX6_IN SF_IB PIX_OUT0 CSA_VREF
+ pixel
Xpixel_7 GRING VDD GND VREF ROW_SEL2 NB1 VBIAS NB2 PIX7_IN SF_IB PIX_OUT1 CSA_VREF
+ pixel
Xpixel_8 GRING VDD GND VREF ROW_SEL2 NB1 VBIAS NB2 PIX8_IN SF_IB PIX_OUT2 CSA_VREF
+ pixel
X0 PIX_OUT2 COL_SEL2 ARRAY_OUT GND sky130_fd_pr__nfet_01v8_lvt ad=4 pd=17 as=3.2 ps=16.8 w=8 l=2
X1 PIX_OUT1 COL_SEl1 ARRAY_OUT GND sky130_fd_pr__nfet_01v8_lvt ad=4 pd=17 as=3.2 ps=16.8 w=8 l=2
X2 PIX_OUT0 COL_SEL0 ARRAY_OUT GND sky130_fd_pr__nfet_01v8_lvt ad=4 pd=17 as=3.2 ps=16.8 w=8 l=2
.ends

.subckt marker_pixel gring VDD GND VREF ROW_SEL NB1 VBIAS NB2 AMP_IN SF_IB PIX_OUT
+ CSA_VREF
X0 GND GND GND GND sky130_fd_pr__nfet_01v8_lvt ad=3.5 pd=7.5 as=24.809025 ps=56.34 w=2 l=1.44
X1 a_4120_n520# VBIAS a_4120_n750# GND sky130_fd_pr__nfet_01v8_lvt ad=0.35 pd=2.7 as=1.995 ps=8.8 w=1 l=0.8
X2 a_5720_n730# a_4600_n810# GND VDD sky130_fd_pr__pfet_01v8_lvt ad=0.25 pd=1.5 as=0.35 ps=2.7 w=1 l=1
X3 a_4330_n30# a_3852_n32# a_3852_n32# VDD sky130_fd_pr__pfet_01v8_lvt ad=0.23 pd=1.65 as=0.3927 ps=2.8 w=1 l=2
X4 VDD SF_IB a_5720_n730# VDD sky130_fd_pr__pfet_01v8_lvt ad=0.35 pd=2.7 as=0.25 ps=1.5 w=1 l=1
X5 a_5460_10# a_4330_n30# VDD VDD sky130_fd_pr__pfet_01v8_lvt ad=0.175 pd=1.35 as=0.35 ps=2.7 w=1 l=2
X6 a_3852_n32# VBIAS a_3860_n1150# GND sky130_fd_pr__nfet_01v8_lvt ad=0.35 pd=2.7 as=1.76 ps=8.8 w=1 l=0.8
X7 VDD a_4120_n520# a_4600_n810# GND sky130_fd_pr__nfet_01v8_lvt ad=0.3 pd=2.6 as=0.25 ps=1.5 w=1 l=1
X8 a_4120_n750# AMP_IN a_4050_n2590# GND sky130_fd_pr__nfet_01v8_lvt ad=1.995 pd=8.8 as=1.4 ps=7.4 w=7 l=0.15
X9 GND GND GND GND sky130_fd_pr__nfet_01v8_lvt ad=3.119375 pd=7.15 as=0 ps=0 w=2 l=3.35
X10 a_4120_n520# a_3852_n32# a_5460_10# VDD sky130_fd_pr__pfet_01v8_lvt ad=0.35 pd=2.7 as=0.175 ps=1.35 w=1 l=2
X11 AMP_IN a_4600_n810# sky130_fd_pr__cap_mim_m3_1 l=2 w=2
X12 GND NB1 a_4050_n2590# GND sky130_fd_pr__nfet_01v8_lvt ad=0.42 pd=3.1 as=0.42 ps=3.1 w=1.2 l=1
X13 a_5750_n920# ROW_SEL PIX_OUT GND sky130_fd_pr__nfet_01v8_lvt ad=0.6 pd=2.95 as=5.4 ps=9.4 w=2 l=1
X14 a_4050_n2590# a_4020_n2270# a_3860_n1150# GND sky130_fd_pr__nfet_01v8_lvt ad=1.4 pd=7.4 as=1.76 ps=8.8 w=7 l=0.15
X15 a_4600_n810# NB2 GND GND sky130_fd_pr__nfet_01v8_lvt ad=0.25 pd=1.5 as=0.5 ps=3 w=1 l=1.15
X16 VDD a_4330_n30# a_4330_n30# VDD sky130_fd_pr__pfet_01v8_lvt ad=0.35 pd=2.7 as=0.23 ps=1.65 w=1 l=2
X17 VDD a_5720_n730# a_5750_n920# GND sky130_fd_pr__nfet_01v8_lvt ad=0.35 pd=2.7 as=0.6 ps=2.95 w=1 l=0.15
X18 AMP_IN CSA_VREF a_4600_n810# VDD sky130_fd_pr__pfet_01v8_lvt ad=0.294 pd=2.24 as=0.273 ps=2.14 w=0.42 l=8
X19 GND GND GND GND sky130_fd_pr__nfet_01v8_lvt ad=10.715 pd=15.9 as=0 ps=0 w=2.6 l=0.35
.ends

.subckt pixel_array100x100 VBIAS VREF NB2 NB1 ROW_SEL[0] GRING ROW_SEL[1] ROW_SEL[2]
+ ROW_SEL[3] ROW_SEL[4] ROW_SEL[5] ROW_SEL[6] ROW_SEL[7] ROW_SEL[8] ROW_SEL[9] ROW_SEL[10]
+ ROW_SEL[11] ROW_SEL[12] ROW_SEL[13] ROW_SEL[14] ROW_SEL[15] ROW_SEL[16] ROW_SEL[17]
+ ROW_SEL[18] ROW_SEL[19] ROW_SEL[20] ROW_SEL[21] ROW_SEL[22] ROW_SEL[23] ROW_SEL[24]
+ ROW_SEL[25] ROW_SEL[26] ROW_SEL[27] ROW_SEL[28] ROW_SEL[29] ROW_SEL[30] ROW_SEL[31]
+ ROW_SEL[32] ROW_SEL[33] ROW_SEL[34] ROW_SEL[35] ROW_SEL[36] ROW_SEL[37] ROW_SEL[38]
+ ROW_SEL[39] ROW_SEL[40] ROW_SEL[41] ROW_SEL[42] ROW_SEL[43] ROW_SEL[44] ROW_SEL[45]
+ ROW_SEL[46] ROW_SEL[47] ROW_SEL[48] ROW_SEL[49] ROW_SEL[50] ROW_SEL[51] ROW_SEL[52]
+ ROW_SEL[53] ROW_SEL[54] ROW_SEL[55] ROW_SEL[56] ROW_SEL[57] ROW_SEL[58] ROW_SEL[59]
+ ROW_SEL[60] ROW_SEL[61] ROW_SEL[62] ROW_SEL[63] ROW_SEL[64] ROW_SEL[65] ROW_SEL[66]
+ ROW_SEL[67] ROW_SEL[68] ROW_SEL[69] ROW_SEL[70] ROW_SEL[71] ROW_SEL[72] ROW_SEL[73]
+ ROW_SEL[74] ROW_SEL[75] ROW_SEL[76] ROW_SEL[77] ROW_SEL[78] ROW_SEL[79] ROW_SEL[80]
+ ROW_SEL[81] ROW_SEL[82] ROW_SEL[83] ROW_SEL[84] ROW_SEL[85] ROW_SEL[86] ROW_SEL[87]
+ ROW_SEL[88] ROW_SEL[89] ROW_SEL[90] ROW_SEL[91] ROW_SEL[92] ROW_SEL[93] ROW_SEL[94]
+ ROW_SEL[95] ROW_SEL[96] ROW_SEL[97] ROW_SEL[98] COL_SEL[0] CSA_VREF ROW_SEL[99]
+ COL_SEL[1] COL_SEL[2] COL_SEL[3] COL_SEL[4] COL_SEL[5] COL_SEL[6] COL_SEL[7] COL_SEL[8]
+ COL_SEL[9] COL_SEL[10] COL_SEL[11] COL_SEL[12] COL_SEL[13] COL_SEL[14] COL_SEL[15]
+ COL_SEL[16] COL_SEL[17] COL_SEL[18] COL_SEL[19] COL_SEL[20] COL_SEL[21] COL_SEL[22]
+ COL_SEL[23] COL_SEL[24] COL_SEL[25] COL_SEL[26] COL_SEL[27] COL_SEL[28] COL_SEL[29]
+ COL_SEL[30] COL_SEL[31] COL_SEL[32] COL_SEL[33] COL_SEL[34] COL_SEL[35] COL_SEL[36]
+ COL_SEL[37] COL_SEL[38] COL_SEL[39] COL_SEL[40] COL_SEL[41] COL_SEL[42] COL_SEL[43]
+ COL_SEL[44] COL_SEL[45] COL_SEL[46] COL_SEL[47] COL_SEL[48] COL_SEL[49] COL_SEL[50]
+ COL_SEL[51] COL_SEL[52] COL_SEL[53] COL_SEL[54] COL_SEL[55] COL_SEL[56] COL_SEL[57]
+ COL_SEL[58] COL_SEL[59] COL_SEL[60] COL_SEL[61] COL_SEL[62] COL_SEL[63] COL_SEL[64]
+ COL_SEL[65] COL_SEL[66] COL_SEL[67] COL_SEL[68] COL_SEL[69] COL_SEL[70] COL_SEL[71]
+ COL_SEL[72] COL_SEL[73] COL_SEL[74] COL_SEL[75] COL_SEL[76] COL_SEL[77] COL_SEL[78]
+ COL_SEL[79] COL_SEL[80] COL_SEL[81] COL_SEL[82] COL_SEL[83] COL_SEL[84] COL_SEL[85]
+ COL_SEL[86] COL_SEL[87] COL_SEL[88] COL_SEL[89] COL_SEL[90] COL_SEL[91] COL_SEL[92]
+ COL_SEL[93] COL_SEL[94] COL_SEL[95] COL_SEL[96] COL_SEL[97] COL_SEL[98] ARRAY_OUT
+ COL_SEL[99] SF_IB VDD GND
Xpixel_9251 GRING VDD GND VREF ROW_SEL[92] NB1 VBIAS NB2 pixel_9251/AMP_IN SF_IB pixel_51/PIX_OUT
+ CSA_VREF pixel
Xpixel_9262 GRING VDD GND VREF ROW_SEL[92] NB1 VBIAS NB2 pixel_9262/AMP_IN SF_IB pixel_62/PIX_OUT
+ CSA_VREF pixel
Xpixel_9273 GRING VDD GND VREF ROW_SEL[92] NB1 VBIAS NB2 pixel_9273/AMP_IN SF_IB pixel_73/PIX_OUT
+ CSA_VREF pixel
Xpixel_8550 GRING VDD GND VREF ROW_SEL[85] NB1 VBIAS NB2 pixel_8550/AMP_IN SF_IB pixel_50/PIX_OUT
+ CSA_VREF pixel
Xpixel_8561 GRING VDD GND VREF ROW_SEL[85] NB1 VBIAS NB2 pixel_8561/AMP_IN SF_IB pixel_61/PIX_OUT
+ CSA_VREF pixel
Xpixel_8572 GRING VDD GND VREF ROW_SEL[85] NB1 VBIAS NB2 pixel_8572/AMP_IN SF_IB pixel_72/PIX_OUT
+ CSA_VREF pixel
Xpixel_9284 GRING VDD GND VREF ROW_SEL[92] NB1 VBIAS NB2 pixel_9284/AMP_IN SF_IB pixel_84/PIX_OUT
+ CSA_VREF pixel
Xpixel_9295 GRING VDD GND VREF ROW_SEL[92] NB1 VBIAS NB2 pixel_9295/AMP_IN SF_IB pixel_95/PIX_OUT
+ CSA_VREF pixel
Xpixel_8583 GRING VDD GND VREF ROW_SEL[85] NB1 VBIAS NB2 pixel_8583/AMP_IN SF_IB pixel_83/PIX_OUT
+ CSA_VREF pixel
Xpixel_8594 GRING VDD GND VREF ROW_SEL[85] NB1 VBIAS NB2 pixel_8594/AMP_IN SF_IB pixel_94/PIX_OUT
+ CSA_VREF pixel
Xpixel_7860 GRING VDD GND VREF ROW_SEL[78] NB1 VBIAS NB2 pixel_7860/AMP_IN SF_IB pixel_60/PIX_OUT
+ CSA_VREF pixel
Xpixel_7893 GRING VDD GND VREF ROW_SEL[78] NB1 VBIAS NB2 pixel_7893/AMP_IN SF_IB pixel_93/PIX_OUT
+ CSA_VREF pixel
Xpixel_7882 GRING VDD GND VREF ROW_SEL[78] NB1 VBIAS NB2 pixel_7882/AMP_IN SF_IB pixel_82/PIX_OUT
+ CSA_VREF pixel
Xpixel_7871 GRING VDD GND VREF ROW_SEL[78] NB1 VBIAS NB2 pixel_7871/AMP_IN SF_IB pixel_71/PIX_OUT
+ CSA_VREF pixel
Xpixel_5209 GRING VDD GND VREF ROW_SEL[52] NB1 VBIAS NB2 pixel_5209/AMP_IN SF_IB pixel_9/PIX_OUT
+ CSA_VREF pixel
Xpixel_503 GRING VDD GND VREF ROW_SEL[5] NB1 VBIAS NB2 pixel_503/AMP_IN SF_IB pixel_3/PIX_OUT
+ CSA_VREF pixel
Xpixel_514 GRING VDD GND VREF ROW_SEL[5] NB1 VBIAS NB2 pixel_514/AMP_IN SF_IB pixel_14/PIX_OUT
+ CSA_VREF pixel
Xpixel_4519 GRING VDD GND VREF ROW_SEL[45] NB1 VBIAS NB2 pixel_4519/AMP_IN SF_IB pixel_19/PIX_OUT
+ CSA_VREF pixel
Xpixel_4508 GRING VDD GND VREF ROW_SEL[45] NB1 VBIAS NB2 pixel_4508/AMP_IN SF_IB pixel_8/PIX_OUT
+ CSA_VREF pixel
Xpixel_525 GRING VDD GND VREF ROW_SEL[5] NB1 VBIAS NB2 pixel_525/AMP_IN SF_IB pixel_25/PIX_OUT
+ CSA_VREF pixel
Xpixel_536 GRING VDD GND VREF ROW_SEL[5] NB1 VBIAS NB2 pixel_536/AMP_IN SF_IB pixel_36/PIX_OUT
+ CSA_VREF pixel
Xpixel_547 GRING VDD GND VREF ROW_SEL[5] NB1 VBIAS NB2 pixel_547/AMP_IN SF_IB pixel_47/PIX_OUT
+ CSA_VREF pixel
Xpixel_3807 GRING VDD GND VREF ROW_SEL[38] NB1 VBIAS NB2 pixel_3807/AMP_IN SF_IB pixel_7/PIX_OUT
+ CSA_VREF pixel
Xpixel_558 GRING VDD GND VREF ROW_SEL[5] NB1 VBIAS NB2 pixel_558/AMP_IN SF_IB pixel_58/PIX_OUT
+ CSA_VREF pixel
Xpixel_569 GRING VDD GND VREF ROW_SEL[5] NB1 VBIAS NB2 pixel_569/AMP_IN SF_IB pixel_69/PIX_OUT
+ CSA_VREF pixel
Xpixel_3818 GRING VDD GND VREF ROW_SEL[38] NB1 VBIAS NB2 pixel_3818/AMP_IN SF_IB pixel_18/PIX_OUT
+ CSA_VREF pixel
Xpixel_3829 GRING VDD GND VREF ROW_SEL[38] NB1 VBIAS NB2 pixel_3829/AMP_IN SF_IB pixel_29/PIX_OUT
+ CSA_VREF pixel
Xpixel_7112 GRING VDD GND VREF ROW_SEL[71] NB1 VBIAS NB2 pixel_7112/AMP_IN SF_IB pixel_12/PIX_OUT
+ CSA_VREF pixel
Xpixel_7101 GRING VDD GND VREF ROW_SEL[71] NB1 VBIAS NB2 pixel_7101/AMP_IN SF_IB pixel_901/PIX_OUT
+ CSA_VREF pixel
Xpixel_7156 GRING VDD GND VREF ROW_SEL[71] NB1 VBIAS NB2 pixel_7156/AMP_IN SF_IB pixel_56/PIX_OUT
+ CSA_VREF pixel
Xpixel_7145 GRING VDD GND VREF ROW_SEL[71] NB1 VBIAS NB2 pixel_7145/AMP_IN SF_IB pixel_45/PIX_OUT
+ CSA_VREF pixel
Xpixel_7134 GRING VDD GND VREF ROW_SEL[71] NB1 VBIAS NB2 pixel_7134/AMP_IN SF_IB pixel_34/PIX_OUT
+ CSA_VREF pixel
Xpixel_7123 GRING VDD GND VREF ROW_SEL[71] NB1 VBIAS NB2 pixel_7123/AMP_IN SF_IB pixel_23/PIX_OUT
+ CSA_VREF pixel
Xpixel_6411 GRING VDD GND VREF ROW_SEL[64] NB1 VBIAS NB2 pixel_6411/AMP_IN SF_IB pixel_11/PIX_OUT
+ CSA_VREF pixel
Xpixel_6400 GRING VDD GND VREF ROW_SEL[64] NB1 VBIAS NB2 pixel_6400/AMP_IN SF_IB pixel_900/PIX_OUT
+ CSA_VREF pixel
Xpixel_7189 GRING VDD GND VREF ROW_SEL[71] NB1 VBIAS NB2 pixel_7189/AMP_IN SF_IB pixel_89/PIX_OUT
+ CSA_VREF pixel
Xpixel_7178 GRING VDD GND VREF ROW_SEL[71] NB1 VBIAS NB2 pixel_7178/AMP_IN SF_IB pixel_78/PIX_OUT
+ CSA_VREF pixel
Xpixel_7167 GRING VDD GND VREF ROW_SEL[71] NB1 VBIAS NB2 pixel_7167/AMP_IN SF_IB pixel_67/PIX_OUT
+ CSA_VREF pixel
Xpixel_6444 GRING VDD GND VREF ROW_SEL[64] NB1 VBIAS NB2 pixel_6444/AMP_IN SF_IB pixel_44/PIX_OUT
+ CSA_VREF pixel
Xpixel_6433 GRING VDD GND VREF ROW_SEL[64] NB1 VBIAS NB2 pixel_6433/AMP_IN SF_IB pixel_33/PIX_OUT
+ CSA_VREF pixel
Xpixel_6422 GRING VDD GND VREF ROW_SEL[64] NB1 VBIAS NB2 pixel_6422/AMP_IN SF_IB pixel_22/PIX_OUT
+ CSA_VREF pixel
Xpixel_6477 GRING VDD GND VREF ROW_SEL[64] NB1 VBIAS NB2 pixel_6477/AMP_IN SF_IB pixel_77/PIX_OUT
+ CSA_VREF pixel
Xpixel_6466 GRING VDD GND VREF ROW_SEL[64] NB1 VBIAS NB2 pixel_6466/AMP_IN SF_IB pixel_66/PIX_OUT
+ CSA_VREF pixel
Xpixel_6455 GRING VDD GND VREF ROW_SEL[64] NB1 VBIAS NB2 pixel_6455/AMP_IN SF_IB pixel_55/PIX_OUT
+ CSA_VREF pixel
Xpixel_5743 GRING VDD GND VREF ROW_SEL[57] NB1 VBIAS NB2 pixel_5743/AMP_IN SF_IB pixel_43/PIX_OUT
+ CSA_VREF pixel
Xpixel_5732 GRING VDD GND VREF ROW_SEL[57] NB1 VBIAS NB2 pixel_5732/AMP_IN SF_IB pixel_32/PIX_OUT
+ CSA_VREF pixel
Xpixel_5721 GRING VDD GND VREF ROW_SEL[57] NB1 VBIAS NB2 pixel_5721/AMP_IN SF_IB pixel_21/PIX_OUT
+ CSA_VREF pixel
Xpixel_5710 GRING VDD GND VREF ROW_SEL[57] NB1 VBIAS NB2 pixel_5710/AMP_IN SF_IB pixel_10/PIX_OUT
+ CSA_VREF pixel
Xpixel_6499 GRING VDD GND VREF ROW_SEL[64] NB1 VBIAS NB2 pixel_6499/AMP_IN SF_IB pixel_99/PIX_OUT
+ CSA_VREF pixel
Xpixel_6488 GRING VDD GND VREF ROW_SEL[64] NB1 VBIAS NB2 pixel_6488/AMP_IN SF_IB pixel_88/PIX_OUT
+ CSA_VREF pixel
Xpixel_5776 GRING VDD GND VREF ROW_SEL[57] NB1 VBIAS NB2 pixel_5776/AMP_IN SF_IB pixel_76/PIX_OUT
+ CSA_VREF pixel
Xpixel_5765 GRING VDD GND VREF ROW_SEL[57] NB1 VBIAS NB2 pixel_5765/AMP_IN SF_IB pixel_65/PIX_OUT
+ CSA_VREF pixel
Xpixel_5754 GRING VDD GND VREF ROW_SEL[57] NB1 VBIAS NB2 pixel_5754/AMP_IN SF_IB pixel_54/PIX_OUT
+ CSA_VREF pixel
Xpixel_5798 GRING VDD GND VREF ROW_SEL[57] NB1 VBIAS NB2 pixel_5798/AMP_IN SF_IB pixel_98/PIX_OUT
+ CSA_VREF pixel
Xpixel_5787 GRING VDD GND VREF ROW_SEL[57] NB1 VBIAS NB2 pixel_5787/AMP_IN SF_IB pixel_87/PIX_OUT
+ CSA_VREF pixel
Xpixel_9070 GRING VDD GND VREF ROW_SEL[90] NB1 VBIAS NB2 pixel_9070/AMP_IN SF_IB pixel_70/PIX_OUT
+ CSA_VREF pixel
Xpixel_9081 GRING VDD GND VREF ROW_SEL[90] NB1 VBIAS NB2 pixel_9081/AMP_IN SF_IB pixel_81/PIX_OUT
+ CSA_VREF pixel
Xpixel_9092 GRING VDD GND VREF ROW_SEL[90] NB1 VBIAS NB2 pixel_9092/AMP_IN SF_IB pixel_92/PIX_OUT
+ CSA_VREF pixel
Xpixel_8380 GRING VDD GND VREF ROW_SEL[83] NB1 VBIAS NB2 pixel_8380/AMP_IN SF_IB pixel_80/PIX_OUT
+ CSA_VREF pixel
Xpixel_8391 GRING VDD GND VREF ROW_SEL[83] NB1 VBIAS NB2 pixel_8391/AMP_IN SF_IB pixel_91/PIX_OUT
+ CSA_VREF pixel
Xpixel_7690 GRING VDD GND VREF ROW_SEL[76] NB1 VBIAS NB2 pixel_7690/AMP_IN SF_IB pixel_90/PIX_OUT
+ CSA_VREF pixel
Xpixel_70 GRING VDD GND VREF ROW_SEL[0] NB1 VBIAS NB2 pixel_70/AMP_IN SF_IB pixel_70/PIX_OUT
+ CSA_VREF pixel
Xpixel_81 GRING VDD GND VREF ROW_SEL[0] NB1 VBIAS NB2 pixel_81/AMP_IN SF_IB pixel_81/PIX_OUT
+ CSA_VREF pixel
Xpixel_92 GRING VDD GND VREF ROW_SEL[0] NB1 VBIAS NB2 pixel_92/AMP_IN SF_IB pixel_92/PIX_OUT
+ CSA_VREF pixel
Xpixel_5028 GRING VDD GND VREF ROW_SEL[50] NB1 VBIAS NB2 pixel_5028/AMP_IN SF_IB pixel_28/PIX_OUT
+ CSA_VREF pixel
Xpixel_5017 GRING VDD GND VREF ROW_SEL[50] NB1 VBIAS NB2 pixel_5017/AMP_IN SF_IB pixel_17/PIX_OUT
+ CSA_VREF pixel
Xpixel_5006 GRING VDD GND VREF ROW_SEL[50] NB1 VBIAS NB2 pixel_5006/AMP_IN SF_IB pixel_6/PIX_OUT
+ CSA_VREF pixel
Xpixel_300 GRING VDD GND VREF ROW_SEL[3] NB1 VBIAS NB2 pixel_300/AMP_IN SF_IB pixel_900/PIX_OUT
+ CSA_VREF pixel
Xpixel_311 GRING VDD GND VREF ROW_SEL[3] NB1 VBIAS NB2 pixel_311/AMP_IN SF_IB pixel_11/PIX_OUT
+ CSA_VREF pixel
Xpixel_322 GRING VDD GND VREF ROW_SEL[3] NB1 VBIAS NB2 pixel_322/AMP_IN SF_IB pixel_22/PIX_OUT
+ CSA_VREF pixel
Xpixel_5039 GRING VDD GND VREF ROW_SEL[50] NB1 VBIAS NB2 pixel_5039/AMP_IN SF_IB pixel_39/PIX_OUT
+ CSA_VREF pixel
Xpixel_4327 GRING VDD GND VREF ROW_SEL[43] NB1 VBIAS NB2 pixel_4327/AMP_IN SF_IB pixel_27/PIX_OUT
+ CSA_VREF pixel
Xpixel_4316 GRING VDD GND VREF ROW_SEL[43] NB1 VBIAS NB2 pixel_4316/AMP_IN SF_IB pixel_16/PIX_OUT
+ CSA_VREF pixel
Xpixel_4305 GRING VDD GND VREF ROW_SEL[43] NB1 VBIAS NB2 pixel_4305/AMP_IN SF_IB pixel_5/PIX_OUT
+ CSA_VREF pixel
Xpixel_333 GRING VDD GND VREF ROW_SEL[3] NB1 VBIAS NB2 pixel_333/AMP_IN SF_IB pixel_33/PIX_OUT
+ CSA_VREF pixel
Xpixel_344 GRING VDD GND VREF ROW_SEL[3] NB1 VBIAS NB2 pixel_344/AMP_IN SF_IB pixel_44/PIX_OUT
+ CSA_VREF pixel
Xpixel_355 GRING VDD GND VREF ROW_SEL[3] NB1 VBIAS NB2 pixel_355/AMP_IN SF_IB pixel_55/PIX_OUT
+ CSA_VREF pixel
Xpixel_3604 GRING VDD GND VREF ROW_SEL[36] NB1 VBIAS NB2 pixel_3604/AMP_IN SF_IB pixel_4/PIX_OUT
+ CSA_VREF pixel
Xpixel_3615 GRING VDD GND VREF ROW_SEL[36] NB1 VBIAS NB2 pixel_3615/AMP_IN SF_IB pixel_15/PIX_OUT
+ CSA_VREF pixel
Xpixel_4349 GRING VDD GND VREF ROW_SEL[43] NB1 VBIAS NB2 pixel_4349/AMP_IN SF_IB pixel_49/PIX_OUT
+ CSA_VREF pixel
Xpixel_4338 GRING VDD GND VREF ROW_SEL[43] NB1 VBIAS NB2 pixel_4338/AMP_IN SF_IB pixel_38/PIX_OUT
+ CSA_VREF pixel
Xpixel_366 GRING VDD GND VREF ROW_SEL[3] NB1 VBIAS NB2 pixel_366/AMP_IN SF_IB pixel_66/PIX_OUT
+ CSA_VREF pixel
Xpixel_377 GRING VDD GND VREF ROW_SEL[3] NB1 VBIAS NB2 pixel_377/AMP_IN SF_IB pixel_77/PIX_OUT
+ CSA_VREF pixel
Xpixel_388 GRING VDD GND VREF ROW_SEL[3] NB1 VBIAS NB2 pixel_388/AMP_IN SF_IB pixel_88/PIX_OUT
+ CSA_VREF pixel
Xpixel_399 GRING VDD GND VREF ROW_SEL[3] NB1 VBIAS NB2 pixel_399/AMP_IN SF_IB pixel_99/PIX_OUT
+ CSA_VREF pixel
Xpixel_2903 GRING VDD GND VREF ROW_SEL[29] NB1 VBIAS NB2 pixel_2903/AMP_IN SF_IB pixel_3/PIX_OUT
+ CSA_VREF pixel
Xpixel_2914 GRING VDD GND VREF ROW_SEL[29] NB1 VBIAS NB2 pixel_2914/AMP_IN SF_IB pixel_14/PIX_OUT
+ CSA_VREF pixel
Xpixel_3626 GRING VDD GND VREF ROW_SEL[36] NB1 VBIAS NB2 pixel_3626/AMP_IN SF_IB pixel_26/PIX_OUT
+ CSA_VREF pixel
Xpixel_3637 GRING VDD GND VREF ROW_SEL[36] NB1 VBIAS NB2 pixel_3637/AMP_IN SF_IB pixel_37/PIX_OUT
+ CSA_VREF pixel
Xpixel_3648 GRING VDD GND VREF ROW_SEL[36] NB1 VBIAS NB2 pixel_3648/AMP_IN SF_IB pixel_48/PIX_OUT
+ CSA_VREF pixel
Xpixel_2925 GRING VDD GND VREF ROW_SEL[29] NB1 VBIAS NB2 pixel_2925/AMP_IN SF_IB pixel_25/PIX_OUT
+ CSA_VREF pixel
Xpixel_2936 GRING VDD GND VREF ROW_SEL[29] NB1 VBIAS NB2 pixel_2936/AMP_IN SF_IB pixel_36/PIX_OUT
+ CSA_VREF pixel
Xpixel_2947 GRING VDD GND VREF ROW_SEL[29] NB1 VBIAS NB2 pixel_2947/AMP_IN SF_IB pixel_47/PIX_OUT
+ CSA_VREF pixel
Xpixel_3659 GRING VDD GND VREF ROW_SEL[36] NB1 VBIAS NB2 pixel_3659/AMP_IN SF_IB pixel_59/PIX_OUT
+ CSA_VREF pixel
Xpixel_2958 GRING VDD GND VREF ROW_SEL[29] NB1 VBIAS NB2 pixel_2958/AMP_IN SF_IB pixel_58/PIX_OUT
+ CSA_VREF pixel
Xpixel_2969 GRING VDD GND VREF ROW_SEL[29] NB1 VBIAS NB2 pixel_2969/AMP_IN SF_IB pixel_69/PIX_OUT
+ CSA_VREF pixel
Xpixel_6252 GRING VDD GND VREF ROW_SEL[62] NB1 VBIAS NB2 pixel_6252/AMP_IN SF_IB pixel_52/PIX_OUT
+ CSA_VREF pixel
Xpixel_6241 GRING VDD GND VREF ROW_SEL[62] NB1 VBIAS NB2 pixel_6241/AMP_IN SF_IB pixel_41/PIX_OUT
+ CSA_VREF pixel
Xpixel_6230 GRING VDD GND VREF ROW_SEL[62] NB1 VBIAS NB2 pixel_6230/AMP_IN SF_IB pixel_30/PIX_OUT
+ CSA_VREF pixel
Xpixel_6296 GRING VDD GND VREF ROW_SEL[62] NB1 VBIAS NB2 pixel_6296/AMP_IN SF_IB pixel_96/PIX_OUT
+ CSA_VREF pixel
Xpixel_6285 GRING VDD GND VREF ROW_SEL[62] NB1 VBIAS NB2 pixel_6285/AMP_IN SF_IB pixel_85/PIX_OUT
+ CSA_VREF pixel
Xpixel_6274 GRING VDD GND VREF ROW_SEL[62] NB1 VBIAS NB2 pixel_6274/AMP_IN SF_IB pixel_74/PIX_OUT
+ CSA_VREF pixel
Xpixel_6263 GRING VDD GND VREF ROW_SEL[62] NB1 VBIAS NB2 pixel_6263/AMP_IN SF_IB pixel_63/PIX_OUT
+ CSA_VREF pixel
Xpixel_5551 GRING VDD GND VREF ROW_SEL[55] NB1 VBIAS NB2 pixel_5551/AMP_IN SF_IB pixel_51/PIX_OUT
+ CSA_VREF pixel
Xpixel_5540 GRING VDD GND VREF ROW_SEL[55] NB1 VBIAS NB2 pixel_5540/AMP_IN SF_IB pixel_40/PIX_OUT
+ CSA_VREF pixel
Xpixel_5584 GRING VDD GND VREF ROW_SEL[55] NB1 VBIAS NB2 pixel_5584/AMP_IN SF_IB pixel_84/PIX_OUT
+ CSA_VREF pixel
Xpixel_5573 GRING VDD GND VREF ROW_SEL[55] NB1 VBIAS NB2 pixel_5573/AMP_IN SF_IB pixel_73/PIX_OUT
+ CSA_VREF pixel
Xpixel_5562 GRING VDD GND VREF ROW_SEL[55] NB1 VBIAS NB2 pixel_5562/AMP_IN SF_IB pixel_62/PIX_OUT
+ CSA_VREF pixel
Xpixel_5595 GRING VDD GND VREF ROW_SEL[55] NB1 VBIAS NB2 pixel_5595/AMP_IN SF_IB pixel_95/PIX_OUT
+ CSA_VREF pixel
Xpixel_4883 GRING VDD GND VREF ROW_SEL[48] NB1 VBIAS NB2 pixel_4883/AMP_IN SF_IB pixel_83/PIX_OUT
+ CSA_VREF pixel
Xpixel_4872 GRING VDD GND VREF ROW_SEL[48] NB1 VBIAS NB2 pixel_4872/AMP_IN SF_IB pixel_72/PIX_OUT
+ CSA_VREF pixel
Xpixel_4861 GRING VDD GND VREF ROW_SEL[48] NB1 VBIAS NB2 pixel_4861/AMP_IN SF_IB pixel_61/PIX_OUT
+ CSA_VREF pixel
Xpixel_4850 GRING VDD GND VREF ROW_SEL[48] NB1 VBIAS NB2 pixel_4850/AMP_IN SF_IB pixel_50/PIX_OUT
+ CSA_VREF pixel
Xpixel_4894 GRING VDD GND VREF ROW_SEL[48] NB1 VBIAS NB2 pixel_4894/AMP_IN SF_IB pixel_94/PIX_OUT
+ CSA_VREF pixel
Xpixel_1509 GRING VDD GND VREF ROW_SEL[15] NB1 VBIAS NB2 pixel_1509/AMP_IN SF_IB pixel_9/PIX_OUT
+ CSA_VREF pixel
Xpixel_9806 GRING VDD GND VREF ROW_SEL[98] NB1 VBIAS NB2 pixel_9806/AMP_IN SF_IB pixel_6/PIX_OUT
+ CSA_VREF pixel
Xpixel_9839 GRING VDD GND VREF ROW_SEL[98] NB1 VBIAS NB2 pixel_9839/AMP_IN SF_IB pixel_39/PIX_OUT
+ CSA_VREF pixel
Xpixel_9828 GRING VDD GND VREF ROW_SEL[98] NB1 VBIAS NB2 pixel_9828/AMP_IN SF_IB pixel_28/PIX_OUT
+ CSA_VREF pixel
Xpixel_9817 GRING VDD GND VREF ROW_SEL[98] NB1 VBIAS NB2 pixel_9817/AMP_IN SF_IB pixel_17/PIX_OUT
+ CSA_VREF pixel
Xpixel_4102 GRING VDD GND VREF ROW_SEL[41] NB1 VBIAS NB2 pixel_4102/AMP_IN SF_IB pixel_2/PIX_OUT
+ CSA_VREF pixel
Xpixel_130 GRING VDD GND VREF ROW_SEL[1] NB1 VBIAS NB2 pixel_130/AMP_IN SF_IB pixel_30/PIX_OUT
+ CSA_VREF pixel
Xpixel_4135 GRING VDD GND VREF ROW_SEL[41] NB1 VBIAS NB2 pixel_4135/AMP_IN SF_IB pixel_35/PIX_OUT
+ CSA_VREF pixel
Xpixel_4124 GRING VDD GND VREF ROW_SEL[41] NB1 VBIAS NB2 pixel_4124/AMP_IN SF_IB pixel_24/PIX_OUT
+ CSA_VREF pixel
Xpixel_4113 GRING VDD GND VREF ROW_SEL[41] NB1 VBIAS NB2 pixel_4113/AMP_IN SF_IB pixel_13/PIX_OUT
+ CSA_VREF pixel
Xpixel_141 GRING VDD GND VREF ROW_SEL[1] NB1 VBIAS NB2 pixel_141/AMP_IN SF_IB pixel_41/PIX_OUT
+ CSA_VREF pixel
Xpixel_152 GRING VDD GND VREF ROW_SEL[1] NB1 VBIAS NB2 pixel_152/AMP_IN SF_IB pixel_52/PIX_OUT
+ CSA_VREF pixel
Xpixel_163 GRING VDD GND VREF ROW_SEL[1] NB1 VBIAS NB2 pixel_163/AMP_IN SF_IB pixel_63/PIX_OUT
+ CSA_VREF pixel
Xpixel_3401 GRING VDD GND VREF ROW_SEL[34] NB1 VBIAS NB2 pixel_3401/AMP_IN SF_IB pixel_901/PIX_OUT
+ CSA_VREF pixel
Xpixel_3412 GRING VDD GND VREF ROW_SEL[34] NB1 VBIAS NB2 pixel_3412/AMP_IN SF_IB pixel_12/PIX_OUT
+ CSA_VREF pixel
Xpixel_3423 GRING VDD GND VREF ROW_SEL[34] NB1 VBIAS NB2 pixel_3423/AMP_IN SF_IB pixel_23/PIX_OUT
+ CSA_VREF pixel
Xpixel_4168 GRING VDD GND VREF ROW_SEL[41] NB1 VBIAS NB2 pixel_4168/AMP_IN SF_IB pixel_68/PIX_OUT
+ CSA_VREF pixel
Xpixel_4157 GRING VDD GND VREF ROW_SEL[41] NB1 VBIAS NB2 pixel_4157/AMP_IN SF_IB pixel_57/PIX_OUT
+ CSA_VREF pixel
Xpixel_4146 GRING VDD GND VREF ROW_SEL[41] NB1 VBIAS NB2 pixel_4146/AMP_IN SF_IB pixel_46/PIX_OUT
+ CSA_VREF pixel
Xpixel_174 GRING VDD GND VREF ROW_SEL[1] NB1 VBIAS NB2 pixel_174/AMP_IN SF_IB pixel_74/PIX_OUT
+ CSA_VREF pixel
Xpixel_185 GRING VDD GND VREF ROW_SEL[1] NB1 VBIAS NB2 pixel_185/AMP_IN SF_IB pixel_85/PIX_OUT
+ CSA_VREF pixel
Xpixel_196 GRING VDD GND VREF ROW_SEL[1] NB1 VBIAS NB2 pixel_196/AMP_IN SF_IB pixel_96/PIX_OUT
+ CSA_VREF pixel
Xpixel_2700 GRING VDD GND VREF ROW_SEL[27] NB1 VBIAS NB2 pixel_2700/AMP_IN SF_IB pixel_900/PIX_OUT
+ CSA_VREF pixel
Xpixel_2711 GRING VDD GND VREF ROW_SEL[27] NB1 VBIAS NB2 pixel_2711/AMP_IN SF_IB pixel_11/PIX_OUT
+ CSA_VREF pixel
Xpixel_2722 GRING VDD GND VREF ROW_SEL[27] NB1 VBIAS NB2 pixel_2722/AMP_IN SF_IB pixel_22/PIX_OUT
+ CSA_VREF pixel
Xpixel_3434 GRING VDD GND VREF ROW_SEL[34] NB1 VBIAS NB2 pixel_3434/AMP_IN SF_IB pixel_34/PIX_OUT
+ CSA_VREF pixel
Xpixel_3445 GRING VDD GND VREF ROW_SEL[34] NB1 VBIAS NB2 pixel_3445/AMP_IN SF_IB pixel_45/PIX_OUT
+ CSA_VREF pixel
Xpixel_3456 GRING VDD GND VREF ROW_SEL[34] NB1 VBIAS NB2 pixel_3456/AMP_IN SF_IB pixel_56/PIX_OUT
+ CSA_VREF pixel
Xpixel_3467 GRING VDD GND VREF ROW_SEL[34] NB1 VBIAS NB2 pixel_3467/AMP_IN SF_IB pixel_67/PIX_OUT
+ CSA_VREF pixel
Xpixel_4179 GRING VDD GND VREF ROW_SEL[41] NB1 VBIAS NB2 pixel_4179/AMP_IN SF_IB pixel_79/PIX_OUT
+ CSA_VREF pixel
Xpixel_2733 GRING VDD GND VREF ROW_SEL[27] NB1 VBIAS NB2 pixel_2733/AMP_IN SF_IB pixel_33/PIX_OUT
+ CSA_VREF pixel
Xpixel_2744 GRING VDD GND VREF ROW_SEL[27] NB1 VBIAS NB2 pixel_2744/AMP_IN SF_IB pixel_44/PIX_OUT
+ CSA_VREF pixel
Xpixel_2755 GRING VDD GND VREF ROW_SEL[27] NB1 VBIAS NB2 pixel_2755/AMP_IN SF_IB pixel_55/PIX_OUT
+ CSA_VREF pixel
Xpixel_3478 GRING VDD GND VREF ROW_SEL[34] NB1 VBIAS NB2 pixel_3478/AMP_IN SF_IB pixel_78/PIX_OUT
+ CSA_VREF pixel
Xpixel_3489 GRING VDD GND VREF ROW_SEL[34] NB1 VBIAS NB2 pixel_3489/AMP_IN SF_IB pixel_89/PIX_OUT
+ CSA_VREF pixel
Xpixel_2766 GRING VDD GND VREF ROW_SEL[27] NB1 VBIAS NB2 pixel_2766/AMP_IN SF_IB pixel_66/PIX_OUT
+ CSA_VREF pixel
Xpixel_2777 GRING VDD GND VREF ROW_SEL[27] NB1 VBIAS NB2 pixel_2777/AMP_IN SF_IB pixel_77/PIX_OUT
+ CSA_VREF pixel
Xpixel_2788 GRING VDD GND VREF ROW_SEL[27] NB1 VBIAS NB2 pixel_2788/AMP_IN SF_IB pixel_88/PIX_OUT
+ CSA_VREF pixel
Xpixel_2799 GRING VDD GND VREF ROW_SEL[27] NB1 VBIAS NB2 pixel_2799/AMP_IN SF_IB pixel_99/PIX_OUT
+ CSA_VREF pixel
Xpixel_6071 GRING VDD GND VREF ROW_SEL[60] NB1 VBIAS NB2 pixel_6071/AMP_IN SF_IB pixel_71/PIX_OUT
+ CSA_VREF pixel
Xpixel_6060 GRING VDD GND VREF ROW_SEL[60] NB1 VBIAS NB2 pixel_6060/AMP_IN SF_IB pixel_60/PIX_OUT
+ CSA_VREF pixel
Xpixel_6093 GRING VDD GND VREF ROW_SEL[60] NB1 VBIAS NB2 pixel_6093/AMP_IN SF_IB pixel_93/PIX_OUT
+ CSA_VREF pixel
Xpixel_6082 GRING VDD GND VREF ROW_SEL[60] NB1 VBIAS NB2 pixel_6082/AMP_IN SF_IB pixel_82/PIX_OUT
+ CSA_VREF pixel
Xpixel_5392 GRING VDD GND VREF ROW_SEL[53] NB1 VBIAS NB2 pixel_5392/AMP_IN SF_IB pixel_92/PIX_OUT
+ CSA_VREF pixel
Xpixel_5381 GRING VDD GND VREF ROW_SEL[53] NB1 VBIAS NB2 pixel_5381/AMP_IN SF_IB pixel_81/PIX_OUT
+ CSA_VREF pixel
Xpixel_5370 GRING VDD GND VREF ROW_SEL[53] NB1 VBIAS NB2 pixel_5370/AMP_IN SF_IB pixel_70/PIX_OUT
+ CSA_VREF pixel
Xpixel_4691 GRING VDD GND VREF ROW_SEL[46] NB1 VBIAS NB2 pixel_4691/AMP_IN SF_IB pixel_91/PIX_OUT
+ CSA_VREF pixel
Xpixel_4680 GRING VDD GND VREF ROW_SEL[46] NB1 VBIAS NB2 pixel_4680/AMP_IN SF_IB pixel_80/PIX_OUT
+ CSA_VREF pixel
Xpixel_3990 GRING VDD GND VREF ROW_SEL[39] NB1 VBIAS NB2 pixel_3990/AMP_IN SF_IB pixel_90/PIX_OUT
+ CSA_VREF pixel
Xpixel_2007 GRING VDD GND VREF ROW_SEL[20] NB1 VBIAS NB2 pixel_2007/AMP_IN SF_IB pixel_7/PIX_OUT
+ CSA_VREF pixel
Xpixel_2018 GRING VDD GND VREF ROW_SEL[20] NB1 VBIAS NB2 pixel_2018/AMP_IN SF_IB pixel_18/PIX_OUT
+ CSA_VREF pixel
Xpixel_1306 GRING VDD GND VREF ROW_SEL[13] NB1 VBIAS NB2 pixel_1306/AMP_IN SF_IB pixel_6/PIX_OUT
+ CSA_VREF pixel
Xpixel_2029 GRING VDD GND VREF ROW_SEL[20] NB1 VBIAS NB2 pixel_2029/AMP_IN SF_IB pixel_29/PIX_OUT
+ CSA_VREF pixel
Xpixel_1317 GRING VDD GND VREF ROW_SEL[13] NB1 VBIAS NB2 pixel_1317/AMP_IN SF_IB pixel_17/PIX_OUT
+ CSA_VREF pixel
Xpixel_1328 GRING VDD GND VREF ROW_SEL[13] NB1 VBIAS NB2 pixel_1328/AMP_IN SF_IB pixel_28/PIX_OUT
+ CSA_VREF pixel
Xpixel_1339 GRING VDD GND VREF ROW_SEL[13] NB1 VBIAS NB2 pixel_1339/AMP_IN SF_IB pixel_39/PIX_OUT
+ CSA_VREF pixel
Xpixel_9603 GRING VDD GND VREF ROW_SEL[96] NB1 VBIAS NB2 pixel_9603/AMP_IN SF_IB pixel_3/PIX_OUT
+ CSA_VREF pixel
Xpixel_9614 GRING VDD GND VREF ROW_SEL[96] NB1 VBIAS NB2 pixel_9614/AMP_IN SF_IB pixel_14/PIX_OUT
+ CSA_VREF pixel
Xpixel_8902 GRING VDD GND VREF ROW_SEL[89] NB1 VBIAS NB2 pixel_8902/AMP_IN SF_IB pixel_2/PIX_OUT
+ CSA_VREF pixel
Xpixel_9647 GRING VDD GND VREF ROW_SEL[96] NB1 VBIAS NB2 pixel_9647/AMP_IN SF_IB pixel_47/PIX_OUT
+ CSA_VREF pixel
Xpixel_9636 GRING VDD GND VREF ROW_SEL[96] NB1 VBIAS NB2 pixel_9636/AMP_IN SF_IB pixel_36/PIX_OUT
+ CSA_VREF pixel
Xpixel_9625 GRING VDD GND VREF ROW_SEL[96] NB1 VBIAS NB2 pixel_9625/AMP_IN SF_IB pixel_25/PIX_OUT
+ CSA_VREF pixel
Xpixel_8913 GRING VDD GND VREF ROW_SEL[89] NB1 VBIAS NB2 pixel_8913/AMP_IN SF_IB pixel_13/PIX_OUT
+ CSA_VREF pixel
Xpixel_8924 GRING VDD GND VREF ROW_SEL[89] NB1 VBIAS NB2 pixel_8924/AMP_IN SF_IB pixel_24/PIX_OUT
+ CSA_VREF pixel
Xpixel_8935 GRING VDD GND VREF ROW_SEL[89] NB1 VBIAS NB2 pixel_8935/AMP_IN SF_IB pixel_35/PIX_OUT
+ CSA_VREF pixel
Xpixel_8946 GRING VDD GND VREF ROW_SEL[89] NB1 VBIAS NB2 pixel_8946/AMP_IN SF_IB pixel_46/PIX_OUT
+ CSA_VREF pixel
Xpixel_9669 GRING VDD GND VREF ROW_SEL[96] NB1 VBIAS NB2 pixel_9669/AMP_IN SF_IB pixel_69/PIX_OUT
+ CSA_VREF pixel
Xpixel_9658 GRING VDD GND VREF ROW_SEL[96] NB1 VBIAS NB2 pixel_9658/AMP_IN SF_IB pixel_58/PIX_OUT
+ CSA_VREF pixel
Xpixel_8957 GRING VDD GND VREF ROW_SEL[89] NB1 VBIAS NB2 pixel_8957/AMP_IN SF_IB pixel_57/PIX_OUT
+ CSA_VREF pixel
Xpixel_8968 GRING VDD GND VREF ROW_SEL[89] NB1 VBIAS NB2 pixel_8968/AMP_IN SF_IB pixel_68/PIX_OUT
+ CSA_VREF pixel
Xpixel_8979 GRING VDD GND VREF ROW_SEL[89] NB1 VBIAS NB2 pixel_8979/AMP_IN SF_IB pixel_79/PIX_OUT
+ CSA_VREF pixel
Xpixel_3220 GRING VDD GND VREF ROW_SEL[32] NB1 VBIAS NB2 pixel_3220/AMP_IN SF_IB pixel_20/PIX_OUT
+ CSA_VREF pixel
Xpixel_3231 GRING VDD GND VREF ROW_SEL[32] NB1 VBIAS NB2 pixel_3231/AMP_IN SF_IB pixel_31/PIX_OUT
+ CSA_VREF pixel
Xpixel_3242 GRING VDD GND VREF ROW_SEL[32] NB1 VBIAS NB2 pixel_3242/AMP_IN SF_IB pixel_42/PIX_OUT
+ CSA_VREF pixel
Xpixel_2530 GRING VDD GND VREF ROW_SEL[25] NB1 VBIAS NB2 pixel_2530/AMP_IN SF_IB pixel_30/PIX_OUT
+ CSA_VREF pixel
Xpixel_3253 GRING VDD GND VREF ROW_SEL[32] NB1 VBIAS NB2 pixel_3253/AMP_IN SF_IB pixel_53/PIX_OUT
+ CSA_VREF pixel