* NGSPICE file created from user_analog_project_wrapper.ext - technology: sky130A

.subckt pixel gring VDD GND VREF ROW_SEL NB1 VBIAS NB2 AMP_IN SF_IB PIX_OUT CSA_VREF
X0 GND GND GND GND sky130_fd_pr__nfet_01v8_lvt ad=3.5 pd=7.5 as=24.809025 ps=56.34 w=2 l=1.44
X1 a_4120_n520# VBIAS a_4120_n750# GND sky130_fd_pr__nfet_01v8_lvt ad=0.35 pd=2.7 as=1.995 ps=8.8 w=1 l=0.8
X2 a_5720_n730# a_4600_n810# GND VDD sky130_fd_pr__pfet_01v8_lvt ad=0.25 pd=1.5 as=0.35 ps=2.7 w=1 l=1
X3 a_4330_n30# a_3852_n32# a_3852_n32# VDD sky130_fd_pr__pfet_01v8_lvt ad=0.23 pd=1.65 as=0.3927 ps=2.8 w=1 l=2
X4 VDD SF_IB a_5720_n730# VDD sky130_fd_pr__pfet_01v8_lvt ad=0.35 pd=2.7 as=0.25 ps=1.5 w=1 l=1
X5 a_5460_10# a_4330_n30# VDD VDD sky130_fd_pr__pfet_01v8_lvt ad=0.175 pd=1.35 as=0.35 ps=2.7 w=1 l=2
X6 a_3852_n32# VBIAS a_3860_n1150# GND sky130_fd_pr__nfet_01v8_lvt ad=0.35 pd=2.7 as=1.76 ps=8.8 w=1 l=0.8
X7 VDD a_4120_n520# a_4600_n810# GND sky130_fd_pr__nfet_01v8_lvt ad=0.3 pd=2.6 as=0.25 ps=1.5 w=1 l=1
X8 a_4120_n750# AMP_IN a_4050_n2590# GND sky130_fd_pr__nfet_01v8_lvt ad=1.995 pd=8.8 as=1.4 ps=7.4 w=7 l=0.15
X9 GND GND GND GND sky130_fd_pr__nfet_01v8_lvt ad=3.119375 pd=7.15 as=0 ps=0 w=2 l=3.35
X10 a_4120_n520# a_3852_n32# a_5460_10# VDD sky130_fd_pr__pfet_01v8_lvt ad=0.35 pd=2.7 as=0.175 ps=1.35 w=1 l=2
X11 AMP_IN a_4600_n810# sky130_fd_pr__cap_mim_m3_1 l=2 w=2
X12 GND NB1 a_4050_n2590# GND sky130_fd_pr__nfet_01v8_lvt ad=0.42 pd=3.1 as=0.42 ps=3.1 w=1.2 l=1
X13 a_5750_n920# ROW_SEL PIX_OUT GND sky130_fd_pr__nfet_01v8_lvt ad=0.6 pd=2.95 as=5.4 ps=9.4 w=2 l=1
X14 a_4050_n2590# VREF a_3860_n1150# GND sky130_fd_pr__nfet_01v8_lvt ad=1.4 pd=7.4 as=1.76 ps=8.8 w=7 l=0.15
X15 a_4600_n810# NB2 GND GND sky130_fd_pr__nfet_01v8_lvt ad=0.25 pd=1.5 as=0.5 ps=3 w=1 l=1.15
X16 VDD a_4330_n30# a_4330_n30# VDD sky130_fd_pr__pfet_01v8_lvt ad=0.35 pd=2.7 as=0.23 ps=1.65 w=1 l=2
X17 VDD a_5720_n730# a_5750_n920# GND sky130_fd_pr__nfet_01v8_lvt ad=0.35 pd=2.7 as=0.6 ps=2.95 w=1 l=0.15
X18 AMP_IN CSA_VREF a_4600_n810# VDD sky130_fd_pr__pfet_01v8_lvt ad=0.294 pd=2.24 as=0.273 ps=2.14 w=0.42 l=8
X19 GND GND GND GND sky130_fd_pr__nfet_01v8_lvt ad=10.715 pd=15.9 as=0 ps=0 w=2.6 l=0.35
.ends

.subckt pixel_array VBIAS VREF NB2 VDD SF_IB CSA_VREF ROW_SEL0 ROW_SEL1 ROW_SEL2 PIX0_IN
+ GRING PIX1_IN PIX2_IN PIX3_IN PIX4_IN PIX5_IN PIX6_IN PIX_OUT0 PIX7_IN PIX_OUT1
+ PIX8_IN PIX_OUT2 ARRAY_OUT COL_SEL0 COL_SEl1 COL_SEL2 GND NB1
Xpixel_0 GRING VDD GND VREF ROW_SEL0 NB1 VBIAS NB2 PIX0_IN SF_IB PIX_OUT0 CSA_VREF
+ pixel
Xpixel_1 GRING VDD GND VREF ROW_SEL0 NB1 VBIAS NB2 PIX1_IN SF_IB PIX_OUT1 CSA_VREF
+ pixel
Xpixel_2 GRING VDD GND VREF ROW_SEL0 NB1 VBIAS NB2 PIX2_IN SF_IB PIX_OUT2 CSA_VREF
+ pixel
Xpixel_3 GRING VDD GND VREF ROW_SEL1 NB1 VBIAS NB2 PIX3_IN SF_IB PIX_OUT0 CSA_VREF
+ pixel
Xpixel_4 GRING VDD GND VREF ROW_SEL1 NB1 VBIAS NB2 PIX4_IN SF_IB PIX_OUT1 CSA_VREF
+ pixel
Xpixel_5 GRING VDD GND VREF ROW_SEL1 NB1 VBIAS NB2 PIX5_IN SF_IB PIX_OUT2 CSA_VREF
+ pixel
Xpixel_6 GRING VDD GND VREF ROW_SEL2 NB1 VBIAS NB2 PIX6_IN SF_IB PIX_OUT0 CSA_VREF
+ pixel
Xpixel_7 GRING VDD GND VREF ROW_SEL2 NB1 VBIAS NB2 PIX7_IN SF_IB PIX_OUT1 CSA_VREF
+ pixel
Xpixel_8 GRING VDD GND VREF ROW_SEL2 NB1 VBIAS NB2 PIX8_IN SF_IB PIX_OUT2 CSA_VREF
+ pixel
X0 PIX_OUT2 COL_SEL2 ARRAY_OUT GND sky130_fd_pr__nfet_01v8_lvt ad=4 pd=17 as=3.2 ps=16.8 w=8 l=2
X1 PIX_OUT1 COL_SEl1 ARRAY_OUT GND sky130_fd_pr__nfet_01v8_lvt ad=4 pd=17 as=3.2 ps=16.8 w=8 l=2
X2 PIX_OUT0 COL_SEL0 ARRAY_OUT GND sky130_fd_pr__nfet_01v8_lvt ad=4 pd=17 as=3.2 ps=16.8 w=8 l=2
.ends

.subckt sky130_fd_sc_hd__decap_6 VGND VNB VPB VPWR
X0 VPWR VGND VPWR VPB sky130_fd_pr__pfet_01v8_hvt ad=0.2262 pd=2.26 as=0.4524 ps=4.52 w=0.87 l=1.97
X1 VGND VPWR VGND VNB sky130_fd_pr__nfet_01v8 ad=0.143 pd=1.62 as=0.286 ps=3.24 w=0.55 l=1.97
.ends

.subckt sky130_ef_sc_hd__decap_12 VGND VPWR VPB VNB
X0 VPWR VGND VPWR VPB sky130_fd_pr__pfet_01v8_hvt ad=0.2262 pd=2.26 as=0.4524 ps=4.52 w=0.87 l=4.73
X1 VGND VPWR VGND VNB sky130_fd_pr__nfet_01v8 ad=0.143 pd=1.62 as=0.286 ps=3.24 w=0.55 l=4.73
.ends

.subckt sky130_fd_sc_hd__mux2_1 A0 A1 S VGND VNB VPB VPWR X
X0 VPWR a_505_21# a_535_374# VPB sky130_fd_pr__pfet_01v8_hvt ad=0.0693 pd=0.75 as=0.0441 ps=0.63 w=0.42 l=0.15
X1 a_505_21# S VPWR VPB sky130_fd_pr__pfet_01v8_hvt ad=0.1176 pd=1.4 as=0.0693 ps=0.75 w=0.42 l=0.15
X2 a_218_374# S VPWR VPB sky130_fd_pr__pfet_01v8_hvt ad=0.07665 pd=0.785 as=0.15835 ps=1.395 w=0.42 l=0.15
X3 VGND a_505_21# a_439_47# VNB sky130_fd_pr__nfet_01v8 ad=0.1449 pd=1.11 as=0.0693 ps=0.75 w=0.42 l=0.15
X4 a_76_199# A0 a_218_374# VPB sky130_fd_pr__pfet_01v8_hvt ad=0.1932 pd=1.34 as=0.07665 ps=0.785 w=0.42 l=0.15
X5 a_505_21# S VGND VNB sky130_fd_pr__nfet_01v8 ad=0.1092 pd=1.36 as=0.1449 ps=1.11 w=0.42 l=0.15
X6 a_439_47# A0 a_76_199# VNB sky130_fd_pr__nfet_01v8 ad=0.0693 pd=0.75 as=0.09975 ps=0.895 w=0.42 l=0.15
X7 a_535_374# A1 a_76_199# VPB sky130_fd_pr__pfet_01v8_hvt ad=0.0441 pd=0.63 as=0.1932 ps=1.34 w=0.42 l=0.15
X8 a_76_199# A1 a_218_47# VNB sky130_fd_pr__nfet_01v8 ad=0.09975 pd=0.895 as=0.0693 ps=0.75 w=0.42 l=0.15
X9 a_218_47# S VGND VNB sky130_fd_pr__nfet_01v8 ad=0.0693 pd=0.75 as=0.11285 ps=1.045 w=0.42 l=0.15
X10 VPWR a_76_199# X VPB sky130_fd_pr__pfet_01v8_hvt ad=0.15835 pd=1.395 as=0.26 ps=2.52 w=1 l=0.15
X11 VGND a_76_199# X VNB sky130_fd_pr__nfet_01v8 ad=0.11285 pd=1.045 as=0.169 ps=1.82 w=0.65 l=0.15
.ends

.subckt sky130_fd_sc_hd__decap_4 VGND VNB VPB VPWR
X0 VPWR VGND VPWR VPB sky130_fd_pr__pfet_01v8_hvt ad=0.2262 pd=2.26 as=0.4524 ps=4.52 w=0.87 l=1.05
X1 VGND VPWR VGND VNB sky130_fd_pr__nfet_01v8 ad=0.143 pd=1.62 as=0.286 ps=3.24 w=0.55 l=1.05
.ends

.subckt sky130_fd_sc_hd__decap_3 VGND VNB VPB VPWR
X0 VPWR VGND VPWR VPB sky130_fd_pr__pfet_01v8_hvt ad=0.2262 pd=2.26 as=0.4524 ps=4.52 w=0.87 l=0.59
X1 VGND VPWR VGND VNB sky130_fd_pr__nfet_01v8 ad=0.143 pd=1.62 as=0.286 ps=3.24 w=0.55 l=0.59
.ends

.subckt sky130_fd_sc_hd__clkbuf_1 A VGND VNB VPB VPWR X
X0 VPWR a_75_212# X VPB sky130_fd_pr__pfet_01v8_hvt ad=0.11455 pd=1.08 as=0.2054 ps=2.1 w=0.79 l=0.15
X1 a_75_212# A VGND VNB sky130_fd_pr__nfet_01v8 ad=0.1352 pd=1.56 as=0.0754 ps=0.81 w=0.52 l=0.15
X2 a_75_212# A VPWR VPB sky130_fd_pr__pfet_01v8_hvt ad=0.2054 pd=2.1 as=0.11455 ps=1.08 w=0.79 l=0.15
X3 VGND a_75_212# X VNB sky130_fd_pr__nfet_01v8 ad=0.0754 pd=0.81 as=0.1352 ps=1.56 w=0.52 l=0.15
.ends

.subckt sky130_fd_sc_hd__decap_8 VGND VNB VPB VPWR
X0 VPWR VGND VPWR VPB sky130_fd_pr__pfet_01v8_hvt ad=0.2262 pd=2.26 as=0.4524 ps=4.52 w=0.87 l=2.89
X1 VGND VPWR VGND VNB sky130_fd_pr__nfet_01v8 ad=0.143 pd=1.62 as=0.286 ps=3.24 w=0.55 l=2.89
.ends

.subckt sky130_fd_sc_hd__inv_2 A VGND VNB VPB VPWR Y
X0 Y A VPWR VPB sky130_fd_pr__pfet_01v8_hvt ad=0.135 pd=1.27 as=0.26 ps=2.52 w=1 l=0.15
X1 VGND A Y VNB sky130_fd_pr__nfet_01v8 ad=0.169 pd=1.82 as=0.08775 ps=0.92 w=0.65 l=0.15
X2 Y A VGND VNB sky130_fd_pr__nfet_01v8 ad=0.08775 pd=0.92 as=0.169 ps=1.82 w=0.65 l=0.15
X3 VPWR A Y VPB sky130_fd_pr__pfet_01v8_hvt ad=0.26 pd=2.52 as=0.135 ps=1.27 w=1 l=0.15
.ends

.subckt sky130_fd_sc_hd__dfrtp_1 CLK D RESET_B VGND VNB VPB VPWR Q
X0 a_805_47# a_761_289# a_639_47# VNB sky130_fd_pr__nfet_01v8 ad=0.0441 pd=0.63 as=0.1401 ps=1.1 w=0.42 l=0.15
X1 a_1217_47# a_27_47# a_1108_47# VNB sky130_fd_pr__special_nfet_01v8 ad=0.0669 pd=0.75 as=0.0711 ps=0.755 w=0.36 l=0.15
X2 a_1283_21# a_1108_47# a_1462_47# VNB sky130_fd_pr__nfet_01v8 ad=0.1092 pd=1.36 as=0.06405 ps=0.725 w=0.42 l=0.15
X3 a_651_413# a_27_47# a_543_47# VPB sky130_fd_pr__pfet_01v8_hvt ad=0.1155 pd=0.97 as=0.07245 ps=0.765 w=0.42 l=0.15
X4 a_1108_47# a_193_47# a_761_289# VNB sky130_fd_pr__special_nfet_01v8 ad=0.0711 pd=0.755 as=0.0999 ps=0.985 w=0.36 l=0.15
X5 VGND RESET_B a_805_47# VNB sky130_fd_pr__nfet_01v8 ad=0.1346 pd=1.15 as=0.0441 ps=0.63 w=0.42 l=0.15
X6 Q a_1283_21# VPWR VPB sky130_fd_pr__pfet_01v8_hvt ad=0.26 pd=2.52 as=0.3012 ps=2.66 w=1 l=0.15
X7 VPWR CLK a_27_47# VPB sky130_fd_pr__pfet_01v8_hvt ad=0.0864 pd=0.91 as=0.1664 ps=1.8 w=0.64 l=0.15
X8 a_448_47# D VPWR VPB sky130_fd_pr__pfet_01v8_hvt ad=0.0651 pd=0.73 as=0.1092 ps=1.36 w=0.42 l=0.15
X9 a_761_289# a_543_47# VGND VNB sky130_fd_pr__nfet_01v8 ad=0.0999 pd=0.985 as=0.1346 ps=1.15 w=0.64 l=0.15
X10 a_193_47# a_27_47# VGND VNB sky130_fd_pr__nfet_01v8 ad=0.1092 pd=1.36 as=0.0567 ps=0.69 w=0.42 l=0.15
X11 a_1108_47# a_27_47# a_761_289# VPB sky130_fd_pr__pfet_01v8_hvt ad=0.0588 pd=0.7 as=0.12915 ps=1.185 w=0.42 l=0.15
X12 a_1462_47# RESET_B VGND VNB sky130_fd_pr__nfet_01v8 ad=0.06405 pd=0.725 as=0.12495 ps=1.015 w=0.42 l=0.15
X13 a_543_47# a_27_47# a_448_47# VNB sky130_fd_pr__special_nfet_01v8 ad=0.0594 pd=0.69 as=0.066 ps=0.745 w=0.36 l=0.15
X14 a_543_47# a_193_47# a_448_47# VPB sky130_fd_pr__pfet_01v8_hvt ad=0.07245 pd=0.765 as=0.0651 ps=0.73 w=0.42 l=0.15
X15 a_448_47# D VGND VNB sky130_fd_pr__nfet_01v8 ad=0.066 pd=0.745 as=0.2205 ps=1.89 w=0.42 l=0.15
X16 VPWR a_1283_21# a_1270_413# VPB sky130_fd_pr__pfet_01v8_hvt ad=0.0819 pd=0.81 as=0.0567 ps=0.69 w=0.42 l=0.15
X17 VPWR a_1108_47# a_1283_21# VPB sky130_fd_pr__pfet_01v8_hvt ad=0.1134 pd=1.38 as=0.0567 ps=0.69 w=0.42 l=0.15
X18 a_1270_413# a_193_47# a_1108_47# VPB sky130_fd_pr__pfet_01v8_hvt ad=0.0567 pd=0.69 as=0.0588 ps=0.7 w=0.42 l=0.15
X19 a_193_47# a_27_47# VPWR VPB sky130_fd_pr__pfet_01v8_hvt ad=0.1664 pd=1.8 as=0.0864 ps=0.91 w=0.64 l=0.15
X20 a_1283_21# RESET_B VPWR VPB sky130_fd_pr__pfet_01v8_hvt ad=0.0567 pd=0.69 as=0.0819 ps=0.81 w=0.42 l=0.15
X21 VPWR a_761_289# a_651_413# VPB sky130_fd_pr__pfet_01v8_hvt ad=0.07035 pd=0.755 as=0.1155 ps=0.97 w=0.42 l=0.15
X22 Q a_1283_21# VGND VNB sky130_fd_pr__nfet_01v8 ad=0.169 pd=1.82 as=0.2087 ps=2.02 w=0.65 l=0.15
X23 a_639_47# a_193_47# a_543_47# VNB sky130_fd_pr__special_nfet_01v8 ad=0.1401 pd=1.1 as=0.0594 ps=0.69 w=0.36 l=0.15
X24 VGND a_1283_21# a_1217_47# VNB sky130_fd_pr__nfet_01v8 ad=0.12495 pd=1.015 as=0.0669 ps=0.75 w=0.42 l=0.15
X25 a_651_413# RESET_B VPWR VPB sky130_fd_pr__pfet_01v8_hvt ad=0.1092 pd=1.36 as=0.07035 ps=0.755 w=0.42 l=0.15
X26 VGND CLK a_27_47# VNB sky130_fd_pr__nfet_01v8 ad=0.0567 pd=0.69 as=0.1092 ps=1.36 w=0.42 l=0.15
X27 a_761_289# a_543_47# VPWR VPB sky130_fd_pr__pfet_01v8_hvt ad=0.12915 pd=1.185 as=0.2184 ps=2.2 w=0.84 l=0.15
.ends

.subckt sky130_fd_sc_hd__diode_2 DIODE VGND VNB VPB VPWR
X0 VNB DIODE sky130_fd_pr__diode_pw2nd_05v5 perim=2.64e+06 area=4.347e+11
.ends

.subckt sky130_fd_sc_hd__clkbuf_16 A VGND VNB VPB VPWR X
X0 VPWR A a_110_47# VPB sky130_fd_pr__pfet_01v8_hvt ad=0.14 pd=1.28 as=0.14 ps=1.28 w=1 l=0.15
X1 VPWR a_110_47# X VPB sky130_fd_pr__pfet_01v8_hvt ad=0.14 pd=1.28 as=0.14 ps=1.28 w=1 l=0.15
X2 X a_110_47# VPWR VPB sky130_fd_pr__pfet_01v8_hvt ad=0.14 pd=1.28 as=0.14 ps=1.28 w=1 l=0.15
X3 X a_110_47# VPWR VPB sky130_fd_pr__pfet_01v8_hvt ad=0.14 pd=1.28 as=0.14 ps=1.28 w=1 l=0.15
X4 VPWR a_110_47# X VPB sky130_fd_pr__pfet_01v8_hvt ad=0.14 pd=1.28 as=0.14 ps=1.28 w=1 l=0.15
X5 VPWR a_110_47# X VPB sky130_fd_pr__pfet_01v8_hvt ad=0.265 pd=2.53 as=0.14 ps=1.28 w=1 l=0.15
X6 a_110_47# A VPWR VPB sky130_fd_pr__pfet_01v8_hvt ad=0.14 pd=1.28 as=0.265 ps=2.53 w=1 l=0.15
X7 a_110_47# A VGND VNB sky130_fd_pr__nfet_01v8 ad=0.0588 pd=0.7 as=0.0588 ps=0.7 w=0.42 l=0.15
X8 VGND a_110_47# X VNB sky130_fd_pr__nfet_01v8 ad=0.0588 pd=0.7 as=0.0588 ps=0.7 w=0.42 l=0.15
X9 X a_110_47# VGND VNB sky130_fd_pr__nfet_01v8 ad=0.0588 pd=0.7 as=0.0588 ps=0.7 w=0.42 l=0.15
X10 VGND a_110_47# X VNB sky130_fd_pr__nfet_01v8 ad=0.0588 pd=0.7 as=0.0588 ps=0.7 w=0.42 l=0.15
X11 a_110_47# A VPWR VPB sky130_fd_pr__pfet_01v8_hvt ad=0.14 pd=1.28 as=0.14 ps=1.28 w=1 l=0.15
X12 VGND A a_110_47# VNB sky130_fd_pr__nfet_01v8 ad=0.0588 pd=0.7 as=0.0588 ps=0.7 w=0.42 l=0.15
X13 VGND a_110_47# X VNB sky130_fd_pr__nfet_01v8 ad=0.05775 pd=0.695 as=0.0588 ps=0.7 w=0.42 l=0.15
X14 VPWR a_110_47# X VPB sky130_fd_pr__pfet_01v8_hvt ad=0.14 pd=1.28 as=0.14 ps=1.28 w=1 l=0.15
X15 X a_110_47# VPWR VPB sky130_fd_pr__pfet_01v8_hvt ad=0.14 pd=1.28 as=0.14 ps=1.28 w=1 l=0.15
X16 VGND A a_110_47# VNB sky130_fd_pr__nfet_01v8 ad=0.0588 pd=0.7 as=0.0588 ps=0.7 w=0.42 l=0.15
X17 VGND a_110_47# X VNB sky130_fd_pr__nfet_01v8 ad=0.1113 pd=1.37 as=0.0588 ps=0.7 w=0.42 l=0.15
X18 VPWR a_110_47# X VPB sky130_fd_pr__pfet_01v8_hvt ad=0.1375 pd=1.275 as=0.14 ps=1.28 w=1 l=0.15
X19 VGND a_110_47# X VNB sky130_fd_pr__nfet_01v8 ad=0.0588 pd=0.7 as=0.0588 ps=0.7 w=0.42 l=0.15
X20 X a_110_47# VPWR VPB sky130_fd_pr__pfet_01v8_hvt ad=0.14 pd=1.28 as=0.1375 ps=1.275 w=1 l=0.15
X21 a_110_47# A VGND VNB sky130_fd_pr__nfet_01v8 ad=0.0588 pd=0.7 as=0.1113 ps=1.37 w=0.42 l=0.15
X22 VPWR A a_110_47# VPB sky130_fd_pr__pfet_01v8_hvt ad=0.14 pd=1.28 as=0.14 ps=1.28 w=1 l=0.15
X23 VPWR a_110_47# X VPB sky130_fd_pr__pfet_01v8_hvt ad=0.14 pd=1.28 as=0.14 ps=1.28 w=1 l=0.15
X24 VPWR a_110_47# X VPB sky130_fd_pr__pfet_01v8_hvt ad=0.14 pd=1.28 as=0.14 ps=1.28 w=1 l=0.15
X25 VGND a_110_47# X VNB sky130_fd_pr__nfet_01v8 ad=0.0588 pd=0.7 as=0.0588 ps=0.7 w=0.42 l=0.15
X26 X a_110_47# VPWR VPB sky130_fd_pr__pfet_01v8_hvt ad=0.14 pd=1.28 as=0.14 ps=1.28 w=1 l=0.15
X27 VGND a_110_47# X VNB sky130_fd_pr__nfet_01v8 ad=0.0588 pd=0.7 as=0.0588 ps=0.7 w=0.42 l=0.15
X28 VGND a_110_47# X VNB sky130_fd_pr__nfet_01v8 ad=0.0588 pd=0.7 as=0.0588 ps=0.7 w=0.42 l=0.15
X29 X a_110_47# VGND VNB sky130_fd_pr__nfet_01v8 ad=0.0588 pd=0.7 as=0.0588 ps=0.7 w=0.42 l=0.15
X30 X a_110_47# VPWR VPB sky130_fd_pr__pfet_01v8_hvt ad=0.14 pd=1.28 as=0.14 ps=1.28 w=1 l=0.15
X31 X a_110_47# VPWR VPB sky130_fd_pr__pfet_01v8_hvt ad=0.14 pd=1.28 as=0.14 ps=1.28 w=1 l=0.15
X32 X a_110_47# VGND VNB sky130_fd_pr__nfet_01v8 ad=0.0588 pd=0.7 as=0.0588 ps=0.7 w=0.42 l=0.15
X33 VPWR a_110_47# X VPB sky130_fd_pr__pfet_01v8_hvt ad=0.14 pd=1.28 as=0.14 ps=1.28 w=1 l=0.15
X34 X a_110_47# VPWR VPB sky130_fd_pr__pfet_01v8_hvt ad=0.14 pd=1.28 as=0.14 ps=1.28 w=1 l=0.15
X35 X a_110_47# VGND VNB sky130_fd_pr__nfet_01v8 ad=0.0588 pd=0.7 as=0.0588 ps=0.7 w=0.42 l=0.15
X36 X a_110_47# VGND VNB sky130_fd_pr__nfet_01v8 ad=0.0588 pd=0.7 as=0.0588 ps=0.7 w=0.42 l=0.15
X37 X a_110_47# VGND VNB sky130_fd_pr__nfet_01v8 ad=0.0588 pd=0.7 as=0.0588 ps=0.7 w=0.42 l=0.15
X38 X a_110_47# VGND VNB sky130_fd_pr__nfet_01v8 ad=0.0588 pd=0.7 as=0.0588 ps=0.7 w=0.42 l=0.15
X39 X a_110_47# VGND VNB sky130_fd_pr__nfet_01v8 ad=0.0588 pd=0.7 as=0.05775 ps=0.695 w=0.42 l=0.15
.ends

.subckt sky130_fd_sc_hd__buf_2 A VGND VNB VPB VPWR X
X0 VPWR a_27_47# X VPB sky130_fd_pr__pfet_01v8_hvt ad=0.265 pd=2.53 as=0.135 ps=1.27 w=1 l=0.15
X1 X a_27_47# VPWR VPB sky130_fd_pr__pfet_01v8_hvt ad=0.135 pd=1.27 as=0.149 ps=1.325 w=1 l=0.15
X2 VPWR A a_27_47# VPB sky130_fd_pr__pfet_01v8_hvt ad=0.149 pd=1.325 as=0.1664 ps=1.8 w=0.64 l=0.15
X3 X a_27_47# VGND VNB sky130_fd_pr__nfet_01v8 ad=0.08775 pd=0.92 as=0.097 ps=0.975 w=0.65 l=0.15
X4 VGND a_27_47# X VNB sky130_fd_pr__nfet_01v8 ad=0.17225 pd=1.83 as=0.08775 ps=0.92 w=0.65 l=0.15
X5 VGND A a_27_47# VNB sky130_fd_pr__nfet_01v8 ad=0.097 pd=0.975 as=0.1092 ps=1.36 w=0.42 l=0.15
.ends

.subckt sky130_fd_sc_hd__clkbuf_2 A VGND VNB VPB VPWR X
X0 VPWR A a_27_47# VPB sky130_fd_pr__pfet_01v8_hvt ad=0.1625 pd=1.325 as=0.265 ps=2.53 w=1 l=0.15
X1 VPWR a_27_47# X VPB sky130_fd_pr__pfet_01v8_hvt ad=0.26 pd=2.52 as=0.135 ps=1.27 w=1 l=0.15
X2 VGND A a_27_47# VNB sky130_fd_pr__nfet_01v8 ad=0.06825 pd=0.745 as=0.1113 ps=1.37 w=0.42 l=0.15
X3 X a_27_47# VPWR VPB sky130_fd_pr__pfet_01v8_hvt ad=0.135 pd=1.27 as=0.1625 ps=1.325 w=1 l=0.15
X4 X a_27_47# VGND VNB sky130_fd_pr__nfet_01v8 ad=0.0567 pd=0.69 as=0.06825 ps=0.745 w=0.42 l=0.15
X5 VGND a_27_47# X VNB sky130_fd_pr__nfet_01v8 ad=0.1092 pd=1.36 as=0.0567 ps=0.69 w=0.42 l=0.15
.ends

.subckt sky130_fd_sc_hd__clkbuf_8 A VGND VNB VPB VPWR X
X0 VPWR A a_110_47# VPB sky130_fd_pr__pfet_01v8_hvt ad=0.14 pd=1.28 as=0.14 ps=1.28 w=1 l=0.15
X1 VPWR a_110_47# X VPB sky130_fd_pr__pfet_01v8_hvt ad=0.14 pd=1.28 as=0.14 ps=1.28 w=1 l=0.15
X2 X a_110_47# VPWR VPB sky130_fd_pr__pfet_01v8_hvt ad=0.14 pd=1.28 as=0.14 ps=1.28 w=1 l=0.15
X3 a_110_47# A VPWR VPB sky130_fd_pr__pfet_01v8_hvt ad=0.14 pd=1.28 as=0.265 ps=2.53 w=1 l=0.15
X4 X a_110_47# VGND VNB sky130_fd_pr__nfet_01v8 ad=0.0588 pd=0.7 as=0.0588 ps=0.7 w=0.42 l=0.15
X5 X a_110_47# VPWR VPB sky130_fd_pr__pfet_01v8_hvt ad=0.14 pd=1.28 as=0.14 ps=1.28 w=1 l=0.15
X6 VGND a_110_47# X VNB sky130_fd_pr__nfet_01v8 ad=0.0588 pd=0.7 as=0.0588 ps=0.7 w=0.42 l=0.15
X7 VPWR a_110_47# X VPB sky130_fd_pr__pfet_01v8_hvt ad=0.14 pd=1.28 as=0.14 ps=1.28 w=1 l=0.15
X8 VGND A a_110_47# VNB sky130_fd_pr__nfet_01v8 ad=0.0588 pd=0.7 as=0.0588 ps=0.7 w=0.42 l=0.15
X9 VGND a_110_47# X VNB sky130_fd_pr__nfet_01v8 ad=0.1134 pd=1.38 as=0.0588 ps=0.7 w=0.42 l=0.15
X10 a_110_47# A VGND VNB sky130_fd_pr__nfet_01v8 ad=0.0588 pd=0.7 as=0.1113 ps=1.37 w=0.42 l=0.15
X11 VPWR a_110_47# X VPB sky130_fd_pr__pfet_01v8_hvt ad=0.14 pd=1.28 as=0.14 ps=1.28 w=1 l=0.15
X12 X a_110_47# VPWR VPB sky130_fd_pr__pfet_01v8_hvt ad=0.14 pd=1.28 as=0.14 ps=1.28 w=1 l=0.15
X13 VGND a_110_47# X VNB sky130_fd_pr__nfet_01v8 ad=0.0588 pd=0.7 as=0.0588 ps=0.7 w=0.42 l=0.15
X14 VGND a_110_47# X VNB sky130_fd_pr__nfet_01v8 ad=0.0588 pd=0.7 as=0.0588 ps=0.7 w=0.42 l=0.15
X15 X a_110_47# VPWR VPB sky130_fd_pr__pfet_01v8_hvt ad=0.14 pd=1.28 as=0.14 ps=1.28 w=1 l=0.15
X16 X a_110_47# VGND VNB sky130_fd_pr__nfet_01v8 ad=0.0588 pd=0.7 as=0.0588 ps=0.7 w=0.42 l=0.15
X17 VPWR a_110_47# X VPB sky130_fd_pr__pfet_01v8_hvt ad=0.265 pd=2.53 as=0.14 ps=1.28 w=1 l=0.15
X18 X a_110_47# VGND VNB sky130_fd_pr__nfet_01v8 ad=0.0588 pd=0.7 as=0.0588 ps=0.7 w=0.42 l=0.15
X19 X a_110_47# VGND VNB sky130_fd_pr__nfet_01v8 ad=0.0588 pd=0.7 as=0.0588 ps=0.7 w=0.42 l=0.15
.ends

.subckt sky130_fd_sc_hd__clkbuf_4 A VGND VNB VPB VPWR X
X0 VPWR A a_27_47# VPB sky130_fd_pr__pfet_01v8_hvt ad=0.165 pd=1.33 as=0.265 ps=2.53 w=1 l=0.15
X1 VGND a_27_47# X VNB sky130_fd_pr__nfet_01v8 ad=0.1218 pd=1.42 as=0.0588 ps=0.7 w=0.42 l=0.15
X2 VGND a_27_47# X VNB sky130_fd_pr__nfet_01v8 ad=0.0588 pd=0.7 as=0.0588 ps=0.7 w=0.42 l=0.15
X3 X a_27_47# VPWR VPB sky130_fd_pr__pfet_01v8_hvt ad=0.14 pd=1.28 as=0.14 ps=1.28 w=1 l=0.15
X4 X a_27_47# VGND VNB sky130_fd_pr__nfet_01v8 ad=0.0588 pd=0.7 as=0.0588 ps=0.7 w=0.42 l=0.15
X5 VGND A a_27_47# VNB sky130_fd_pr__nfet_01v8 ad=0.07035 pd=0.755 as=0.1113 ps=1.37 w=0.42 l=0.15
X6 VPWR a_27_47# X VPB sky130_fd_pr__pfet_01v8_hvt ad=0.3 pd=2.6 as=0.14 ps=1.28 w=1 l=0.15
X7 X a_27_47# VGND VNB sky130_fd_pr__nfet_01v8 ad=0.0588 pd=0.7 as=0.07035 ps=0.755 w=0.42 l=0.15
X8 X a_27_47# VPWR VPB sky130_fd_pr__pfet_01v8_hvt ad=0.14 pd=1.28 as=0.165 ps=1.33 w=1 l=0.15
X9 VPWR a_27_47# X VPB sky130_fd_pr__pfet_01v8_hvt ad=0.14 pd=1.28 as=0.14 ps=1.28 w=1 l=0.15
.ends

.subckt sky130_fd_sc_hd__buf_6 A VGND VNB VPB VPWR X
X0 VPWR a_161_47# X VPB sky130_fd_pr__pfet_01v8_hvt ad=0.26 pd=2.52 as=0.135 ps=1.27 w=1 l=0.15
X1 a_161_47# A VGND VNB sky130_fd_pr__nfet_01v8 ad=0.08775 pd=0.92 as=0.169 ps=1.82 w=0.65 l=0.15
X2 X a_161_47# VPWR VPB sky130_fd_pr__pfet_01v8_hvt ad=0.135 pd=1.27 as=0.135 ps=1.27 w=1 l=0.15
X3 VPWR a_161_47# X VPB sky130_fd_pr__pfet_01v8_hvt ad=0.135 pd=1.27 as=0.135 ps=1.27 w=1 l=0.15
X4 VGND A a_161_47# VNB sky130_fd_pr__nfet_01v8 ad=0.08775 pd=0.92 as=0.08775 ps=0.92 w=0.65 l=0.15
X5 X a_161_47# VPWR VPB sky130_fd_pr__pfet_01v8_hvt ad=0.135 pd=1.27 as=0.135 ps=1.27 w=1 l=0.15
X6 VGND a_161_47# X VNB sky130_fd_pr__nfet_01v8 ad=0.08775 pd=0.92 as=0.08775 ps=0.92 w=0.65 l=0.15
X7 VGND a_161_47# X VNB sky130_fd_pr__nfet_01v8 ad=0.08775 pd=0.92 as=0.08775 ps=0.92 w=0.65 l=0.15
X8 VPWR a_161_47# X VPB sky130_fd_pr__pfet_01v8_hvt ad=0.135 pd=1.27 as=0.135 ps=1.27 w=1 l=0.15
X9 X a_161_47# VPWR VPB sky130_fd_pr__pfet_01v8_hvt ad=0.135 pd=1.27 as=0.135 ps=1.27 w=1 l=0.15
X10 X a_161_47# VGND VNB sky130_fd_pr__nfet_01v8 ad=0.08775 pd=0.92 as=0.08775 ps=0.92 w=0.65 l=0.15
X11 X a_161_47# VGND VNB sky130_fd_pr__nfet_01v8 ad=0.08775 pd=0.92 as=0.08775 ps=0.92 w=0.65 l=0.15
X12 X a_161_47# VGND VNB sky130_fd_pr__nfet_01v8 ad=0.08775 pd=0.92 as=0.08775 ps=0.92 w=0.65 l=0.15
X13 VPWR A a_161_47# VPB sky130_fd_pr__pfet_01v8_hvt ad=0.135 pd=1.27 as=0.135 ps=1.27 w=1 l=0.15
X14 VGND a_161_47# X VNB sky130_fd_pr__nfet_01v8 ad=0.169 pd=1.82 as=0.08775 ps=0.92 w=0.65 l=0.15
X15 a_161_47# A VPWR VPB sky130_fd_pr__pfet_01v8_hvt ad=0.135 pd=1.27 as=0.26 ps=2.52 w=1 l=0.15
.ends

.subckt sky130_fd_sc_hd__dfrtp_4 CLK D RESET_B VGND VNB VPB VPWR Q
X0 a_805_47# a_761_289# a_639_47# VNB sky130_fd_pr__nfet_01v8 ad=0.0441 pd=0.63 as=0.1401 ps=1.1 w=0.42 l=0.15
X1 a_1217_47# a_27_47# a_1108_47# VNB sky130_fd_pr__special_nfet_01v8 ad=0.0669 pd=0.75 as=0.0711 ps=0.755 w=0.36 l=0.15
X2 a_1283_21# a_1108_47# a_1462_47# VNB sky130_fd_pr__nfet_01v8 ad=0.1092 pd=1.36 as=0.06405 ps=0.725 w=0.42 l=0.15
X3 a_651_413# a_27_47# a_543_47# VPB sky130_fd_pr__pfet_01v8_hvt ad=0.1155 pd=0.97 as=0.07245 ps=0.765 w=0.42 l=0.15
X4 a_1108_47# a_193_47# a_761_289# VNB sky130_fd_pr__special_nfet_01v8 ad=0.0711 pd=0.755 as=0.0999 ps=0.985 w=0.36 l=0.15
X5 VGND RESET_B a_805_47# VNB sky130_fd_pr__nfet_01v8 ad=0.1346 pd=1.15 as=0.0441 ps=0.63 w=0.42 l=0.15
X6 VPWR a_1283_21# Q VPB sky130_fd_pr__pfet_01v8_hvt ad=0.305 pd=2.61 as=0.135 ps=1.27 w=1 l=0.15
X7 VPWR CLK a_27_47# VPB sky130_fd_pr__pfet_01v8_hvt ad=0.0864 pd=0.91 as=0.1664 ps=1.8 w=0.64 l=0.15
X8 a_448_47# D VPWR VPB sky130_fd_pr__pfet_01v8_hvt ad=0.0651 pd=0.73 as=0.1092 ps=1.36 w=0.42 l=0.15
X9 Q a_1283_21# VPWR VPB sky130_fd_pr__pfet_01v8_hvt ad=0.135 pd=1.27 as=0.135 ps=1.27 w=1 l=0.15
X10 VPWR a_1283_21# Q VPB sky130_fd_pr__pfet_01v8_hvt ad=0.135 pd=1.27 as=0.135 ps=1.27 w=1 l=0.15
X11 a_761_289# a_543_47# VGND VNB sky130_fd_pr__nfet_01v8 ad=0.0999 pd=0.985 as=0.1346 ps=1.15 w=0.64 l=0.15
X12 Q a_1283_21# VGND VNB sky130_fd_pr__nfet_01v8 ad=0.08775 pd=0.92 as=0.169 ps=1.82 w=0.65 l=0.15
X13 a_193_47# a_27_47# VGND VNB sky130_fd_pr__nfet_01v8 ad=0.1092 pd=1.36 as=0.0567 ps=0.69 w=0.42 l=0.15
X14 a_1108_47# a_27_47# a_761_289# VPB sky130_fd_pr__pfet_01v8_hvt ad=0.0588 pd=0.7 as=0.12915 ps=1.185 w=0.42 l=0.15
X15 a_1462_47# RESET_B VGND VNB sky130_fd_pr__nfet_01v8 ad=0.06405 pd=0.725 as=0.12495 ps=1.015 w=0.42 l=0.15
X16 a_543_47# a_27_47# a_448_47# VNB sky130_fd_pr__special_nfet_01v8 ad=0.0594 pd=0.69 as=0.066 ps=0.745 w=0.36 l=0.15
X17 a_543_47# a_193_47# a_448_47# VPB sky130_fd_pr__pfet_01v8_hvt ad=0.07245 pd=0.765 as=0.0651 ps=0.73 w=0.42 l=0.15
X18 a_448_47# D VGND VNB sky130_fd_pr__nfet_01v8 ad=0.066 pd=0.745 as=0.2205 ps=1.89 w=0.42 l=0.15
X19 VPWR a_1283_21# a_1270_413# VPB sky130_fd_pr__pfet_01v8_hvt ad=0.0819 pd=0.81 as=0.0567 ps=0.69 w=0.42 l=0.15
X20 VPWR a_1108_47# a_1283_21# VPB sky130_fd_pr__pfet_01v8_hvt ad=0.1134 pd=1.38 as=0.0567 ps=0.69 w=0.42 l=0.15
X21 Q a_1283_21# VPWR VPB sky130_fd_pr__pfet_01v8_hvt ad=0.135 pd=1.27 as=0.26 ps=2.52 w=1 l=0.15
X22 a_1270_413# a_193_47# a_1108_47# VPB sky130_fd_pr__pfet_01v8_hvt ad=0.0567 pd=0.69 as=0.0588 ps=0.7 w=0.42 l=0.15
X23 a_193_47# a_27_47# VPWR VPB sky130_fd_pr__pfet_01v8_hvt ad=0.1664 pd=1.8 as=0.0864 ps=0.91 w=0.64 l=0.15
X24 a_1283_21# RESET_B VPWR VPB sky130_fd_pr__pfet_01v8_hvt ad=0.0567 pd=0.69 as=0.0819 ps=0.81 w=0.42 l=0.15
X25 VGND a_1283_21# Q VNB sky130_fd_pr__nfet_01v8 ad=0.08775 pd=0.92 as=0.08775 ps=0.92 w=0.65 l=0.15
X26 VGND a_1283_21# Q VNB sky130_fd_pr__nfet_01v8 ad=0.182 pd=1.86 as=0.08775 ps=0.92 w=0.65 l=0.15
X27 VPWR a_761_289# a_651_413# VPB sky130_fd_pr__pfet_01v8_hvt ad=0.07035 pd=0.755 as=0.1155 ps=0.97 w=0.42 l=0.15
X28 a_639_47# a_193_47# a_543_47# VNB sky130_fd_pr__special_nfet_01v8 ad=0.1401 pd=1.1 as=0.0594 ps=0.69 w=0.36 l=0.15
X29 VGND a_1283_21# a_1217_47# VNB sky130_fd_pr__nfet_01v8 ad=0.12495 pd=1.015 as=0.0669 ps=0.75 w=0.42 l=0.15
X30 a_651_413# RESET_B VPWR VPB sky130_fd_pr__pfet_01v8_hvt ad=0.1092 pd=1.36 as=0.07035 ps=0.755 w=0.42 l=0.15
X31 VGND CLK a_27_47# VNB sky130_fd_pr__nfet_01v8 ad=0.0567 pd=0.69 as=0.1092 ps=1.36 w=0.42 l=0.15
X32 a_761_289# a_543_47# VPWR VPB sky130_fd_pr__pfet_01v8_hvt ad=0.12915 pd=1.185 as=0.2184 ps=2.2 w=0.84 l=0.15
X33 Q a_1283_21# VGND VNB sky130_fd_pr__nfet_01v8 ad=0.08775 pd=0.92 as=0.08775 ps=0.92 w=0.65 l=0.15
.ends

.subckt sky130_fd_sc_hd__buf_4 A VGND VNB VPB VPWR X
X0 VPWR a_27_47# X VPB sky130_fd_pr__pfet_01v8_hvt ad=0.26 pd=2.52 as=0.135 ps=1.27 w=1 l=0.15
X1 X a_27_47# VPWR VPB sky130_fd_pr__pfet_01v8_hvt ad=0.135 pd=1.27 as=0.135 ps=1.27 w=1 l=0.15
X2 VPWR a_27_47# X VPB sky130_fd_pr__pfet_01v8_hvt ad=0.135 pd=1.27 as=0.135 ps=1.27 w=1 l=0.15
X3 X a_27_47# VPWR VPB sky130_fd_pr__pfet_01v8_hvt ad=0.135 pd=1.27 as=0.135 ps=1.27 w=1 l=0.15
X4 X a_27_47# VGND VNB sky130_fd_pr__nfet_01v8 ad=0.08775 pd=0.92 as=0.08775 ps=0.92 w=0.65 l=0.15
X5 X a_27_47# VGND VNB sky130_fd_pr__nfet_01v8 ad=0.08775 pd=0.92 as=0.08775 ps=0.92 w=0.65 l=0.15
X6 VGND a_27_47# X VNB sky130_fd_pr__nfet_01v8 ad=0.08775 pd=0.92 as=0.08775 ps=0.92 w=0.65 l=0.15
X7 VGND a_27_47# X VNB sky130_fd_pr__nfet_01v8 ad=0.169 pd=1.82 as=0.08775 ps=0.92 w=0.65 l=0.15
X8 VPWR A a_27_47# VPB sky130_fd_pr__pfet_01v8_hvt ad=0.135 pd=1.27 as=0.26 ps=2.52 w=1 l=0.15
X9 VGND A a_27_47# VNB sky130_fd_pr__nfet_01v8 ad=0.08775 pd=0.92 as=0.169 ps=1.82 w=0.65 l=0.15
.ends

.subckt shift_registerC COL_SEL[0] COL_SEL[10] COL_SEL[11] COL_SEL[12] COL_SEL[13]
+ COL_SEL[14] COL_SEL[15] COL_SEL[16] COL_SEL[17] COL_SEL[18] COL_SEL[19] COL_SEL[1]
+ COL_SEL[20] COL_SEL[21] COL_SEL[22] COL_SEL[23] COL_SEL[24] COL_SEL[25] COL_SEL[26]
+ COL_SEL[27] COL_SEL[28] COL_SEL[29] COL_SEL[2] COL_SEL[30] COL_SEL[31] COL_SEL[32]
+ COL_SEL[33] COL_SEL[34] COL_SEL[35] COL_SEL[36] COL_SEL[37] COL_SEL[38] COL_SEL[39]
+ COL_SEL[3] COL_SEL[40] COL_SEL[41] COL_SEL[42] COL_SEL[43] COL_SEL[44] COL_SEL[45]
+ COL_SEL[46] COL_SEL[47] COL_SEL[48] COL_SEL[49] COL_SEL[4] COL_SEL[50] COL_SEL[51]
+ COL_SEL[52] COL_SEL[53] COL_SEL[54] COL_SEL[55] COL_SEL[56] COL_SEL[57] COL_SEL[58]
+ COL_SEL[59] COL_SEL[5] COL_SEL[60] COL_SEL[61] COL_SEL[62] COL_SEL[63] COL_SEL[64]
+ COL_SEL[65] COL_SEL[66] COL_SEL[67] COL_SEL[68] COL_SEL[69] COL_SEL[6] COL_SEL[70]
+ COL_SEL[71] COL_SEL[72] COL_SEL[73] COL_SEL[74] COL_SEL[75] COL_SEL[76] COL_SEL[77]
+ COL_SEL[78] COL_SEL[79] COL_SEL[7] COL_SEL[80] COL_SEL[81] COL_SEL[82] COL_SEL[83]
+ COL_SEL[84] COL_SEL[85] COL_SEL[86] COL_SEL[87] COL_SEL[88] COL_SEL[89] COL_SEL[8]
+ COL_SEL[90] COL_SEL[91] COL_SEL[92] COL_SEL[93] COL_SEL[94] COL_SEL[95] COL_SEL[96]
+ COL_SEL[97] COL_SEL[98] COL_SEL[99] COL_SEL[9] clk data_in data_out ena rst VDD
+ GND
XFILLER_3_2401 GND GND VDD VDD sky130_fd_sc_hd__decap_6
XFILLER_3_2445 GND VDD VDD GND sky130_ef_sc_hd__decap_12
XFILLER_3_2489 GND VDD VDD GND sky130_ef_sc_hd__decap_12
XFILLER_19_2409 GND VDD VDD GND sky130_ef_sc_hd__decap_12
XFILLER_17_2177 GND GND VDD VDD sky130_fd_sc_hd__decap_6
XFILLER_8_1633 GND VDD VDD GND sky130_ef_sc_hd__decap_12
XFILLER_8_1677 GND VDD VDD GND sky130_ef_sc_hd__decap_12
X_501_ _727_/Q _726_/Q _503_/S GND GND VDD VDD _502_/A sky130_fd_sc_hd__mux2_1
X_432_ _758_/Q _757_/Q _436_/S GND GND VDD VDD _433_/A sky130_fd_sc_hd__mux2_1
XFILLER_14_601 GND VDD VDD GND sky130_ef_sc_hd__decap_12
XFILLER_14_645 GND VDD VDD GND sky130_ef_sc_hd__decap_12
X_363_ _789_/Q _788_/Q _369_/S GND GND VDD VDD _364_/A sky130_fd_sc_hd__mux2_1
XFILLER_9_137 GND VDD VDD GND sky130_ef_sc_hd__decap_12
XFILLER_13_1841 GND GND VDD VDD sky130_fd_sc_hd__decap_6
XFILLER_13_1885 GND VDD VDD GND sky130_ef_sc_hd__decap_12
XFILLER_9_2109 GND VDD VDD GND sky130_ef_sc_hd__decap_12
XFILLER_7_1121 GND VDD VDD GND sky130_ef_sc_hd__decap_12
XFILLER_4_2765 GND GND VDD VDD sky130_fd_sc_hd__decap_6
XFILLER_20_2513 GND GND VDD VDD sky130_fd_sc_hd__decap_6
XFILLER_20_2524 GND GND VDD VDD sky130_fd_sc_hd__decap_4
XFILLER_0_2629 GND GND VDD VDD sky130_fd_sc_hd__decap_3
XFILLER_18_3121 GND VDD VDD GND sky130_ef_sc_hd__decap_12
XFILLER_0_1917 GND VDD VDD GND sky130_ef_sc_hd__decap_12
XFILLER_18_3165 GND VDD VDD GND sky130_ef_sc_hd__decap_12
XFILLER_17_461 GND VDD VDD GND sky130_ef_sc_hd__decap_12
XFILLER_14_2317 GND GND VDD VDD sky130_fd_sc_hd__decap_6
XFILLER_18_1730 GND GND VDD VDD sky130_fd_sc_hd__decap_6
XFILLER_20_637 GND GND VDD VDD sky130_fd_sc_hd__decap_6
XFILLER_20_648 GND VDD VDD GND sky130_ef_sc_hd__decap_12
XFILLER_12_1373 GND VDD VDD GND sky130_ef_sc_hd__decap_12
XFILLER_9_1953 GND GND VDD VDD sky130_fd_sc_hd__decap_6
XFILLER_5_1817 GND VDD VDD GND sky130_ef_sc_hd__decap_12
XFILLER_9_1997 GND VDD VDD GND sky130_ef_sc_hd__decap_12
XFILLER_3_2253 GND VDD VDD GND sky130_ef_sc_hd__decap_12
XFILLER_3_2297 GND VDD VDD GND sky130_ef_sc_hd__decap_12
XFILLER_12_65 GND VDD VDD GND sky130_ef_sc_hd__decap_12
XFILLER_2_357 GND GND VDD VDD sky130_fd_sc_hd__decap_6
XFILLER_8_1441 GND VDD VDD GND sky130_ef_sc_hd__decap_12
XFILLER_1_2905 GND GND VDD VDD sky130_fd_sc_hd__decap_6
XFILLER_8_1485 GND VDD VDD GND sky130_ef_sc_hd__decap_12
XFILLER_1_2949 GND VDD VDD GND sky130_ef_sc_hd__decap_12
XFILLER_2_1073 GND VDD VDD GND sky130_ef_sc_hd__decap_12
XFILLER_15_921 GND VDD VDD GND sky130_ef_sc_hd__decap_12
XFILLER_15_3305 GND GND VDD VDD sky130_fd_sc_hd__decap_4
XFILLER_18_1037 GND VDD VDD GND sky130_ef_sc_hd__decap_12
X_415_ _415_/A GND GND VDD VDD _766_/D sky130_fd_sc_hd__clkbuf_1
XFILLER_15_965 GND VDD VDD GND sky130_ef_sc_hd__decap_12
XFILLER_13_3073 GND GND VDD VDD sky130_fd_sc_hd__decap_6
XFILLER_10_681 GND VDD VDD GND sky130_ef_sc_hd__decap_12
XFILLER_20_3011 GND VDD VDD GND sky130_ef_sc_hd__decap_12
XFILLER_20_3044 GND GND VDD VDD sky130_fd_sc_hd__decap_8
XFILLER_20_2310 GND VDD VDD GND sky130_ef_sc_hd__decap_12
XFILLER_0_3105 GND GND VDD VDD sky130_fd_sc_hd__decap_3
XFILLER_20_2343 GND GND VDD VDD sky130_fd_sc_hd__decap_8
XFILLER_20_3077 GND GND VDD VDD sky130_fd_sc_hd__decap_3
XFILLER_0_3149 GND VDD VDD GND sky130_ef_sc_hd__decap_12
XFILLER_4_2573 GND VDD VDD GND sky130_ef_sc_hd__decap_12
XFILLER_20_2365 GND VDD VDD GND sky130_ef_sc_hd__decap_12
XFILLER_20_1620 GND GND VDD VDD sky130_fd_sc_hd__decap_4
XFILLER_0_2437 GND VDD VDD GND sky130_ef_sc_hd__decap_12
XFILLER_18_781 GND VDD VDD GND sky130_ef_sc_hd__decap_12
XFILLER_20_1653 GND GND VDD VDD sky130_fd_sc_hd__decap_3
XFILLER_14_2125 GND VDD VDD GND sky130_ef_sc_hd__decap_12
XFILLER_14_2169 GND VDD VDD GND sky130_ef_sc_hd__decap_12